
**** 05/15/24 16:32:16 **** PSpice 23.1.0 (30 January 2024) *** ID# 0 ********

 ** Profile: "SCHEMATIC1-TEST"  [ e:\otros\electrónica\phonopreamp\simulations\phonopreamp-pspicefiles\schematic1\test.sim ] 


 ****     CIRCUIT DESCRIPTION


******************************************************************************




** Creating circuit file "TEST.cir" 
** WARNING: THIS AUTOMATICALLY GENERATED FILE MAY BE OVERWRITTEN BY SUBSEQUENT SIMULATIONS

*Libraries: 
* Profile Libraries :
* Local Libraries :
* From [PSPICE NETLIST] section of C:\cds_spb_home\cdssetup\OrCAD_PSpiceTIPSpice_Install\23.1.0\PSpice.ini file:
.lib "nom_pspti.lib" 
.lib "nom.lib" 

*Analysis directives: 
.AC DEC 100 20 20000
.OPTIONS ADVCONV
.OPTIONS FILEMODELSEARCH
.PROBE64 V(alias(*)) I(alias(*)) W(alias(*)) D(alias(*)) NOISE(alias(*)) 
.INC "..\SCHEMATIC1.net" 



**** INCLUDING SCHEMATIC1.net ****
* source PHONOPREAMP
V_V4         N00264 0 DC 0Vdc AC 1Vac 
V_V5         +15V 0 +15Vdc
V_V6         -15V 0 -15Vdc
X_U1         N06065 N060391 N060392 N060393 N08538 LM4562 
C_C2         N060393 +15V  100n  TC=0,0 
C_C3         -15V N060392  100n  TC=0,0 
R_R3         N06065 0  4.7k TC=0,0 
R_R4         N060391 N00264  2.2k TC=0,0 
R_R5         0 N00264  47k TC=0,0 
R_R2         N08538 N06065  180k TC=0,0 
C_C4         N09521 N06065  22n  TC=0,0 
R_R1         N08538 N09521  10k TC=0,0 
C_C5         N101220 +15V  100n  TC=0,0 
X_U2         N10784 N10196 N101662 N101220 N11106 LM4562 
R_R7         0 N10196  47k TC=0,0 
C_C6         -15V N101662  100n  TC=0,0 
V_V7         N10192 0 DC 0Vdc AC 1Vac 
C_C8         N10196 N10192  22u  TC=0,0 
C_C9         N14368 0  470u  TC=0,0 
R_R12         N11102 N10784  68k TC=0,0 
R_R13         N11106 N11102  5.6k TC=0,0 
C_C10         N11102 N10784  47n  TC=0,0 
C_C11         N11106 N11102  10n  TC=0,0 
C_C12         N11106 N11102  3.3n  TC=0,0 
C_C14         N11921 N11907  22u  TC=0,0 
C_C13         N11907 0  10n  TC=0,0 
R_R14         N11907 N11106  150 TC=0,0 
R_R16         N14368 N10784  75 TC=0,0 
X_U3         N16088 N11921 N160062 N159840 N16095 LM4562 
C_C16         -15V N160062  100n  TC=0,0 
C_C15         N159840 +15V  100n  TC=0,0 
C_C17         N16095 N16088  100p  TC=0,0 
R_R17         N16271 N16088  25k TC=0,0 
C_C18         N16271 N16088  100n  TC=0,0 
R_R18         N16271 N16385  1k TC=0,0 
C_C19         N16385 0  220u  TC=0,0 
R_R19         N16095 N16271  {GAIN} TC=0,0 
.PARAM  gain=1k

**** RESUMING TEST.cir ****
.END

INFO(ORPSIM-16573): AC analysis does not support expression evaluation at each frequency. ABM devices with non-linear operations will be evaluated only at bias point.

**** 05/15/24 16:32:16 **** PSpice 23.1.0 (30 January 2024) *** ID# 0 ********

 ** Profile: "SCHEMATIC1-TEST"  [ e:\otros\electrónica\phonopreamp\simulations\phonopreamp-pspicefiles\schematic1\test.sim ] 


 ****     Diode MODEL PARAMETERS


******************************************************************************




               X_U1.X1.DDEFAULT                X_U1.X1.DBLOCK  
          IS  800.000000E-18                  800.000000E-18 
          BV   25            


               X_U2.X1.DDEFAULT                X_U2.X1.DBLOCK  
          IS  800.000000E-18                  800.000000E-18 
          BV   25            


               X_U3.X1.DDEFAULT                X_U3.X1.DBLOCK  
          IS  800.000000E-18                  800.000000E-18 
          BV   25            


               X_U1.X1.XD4.IDIODE 
          IS   10.000000E-15 
           N     .01         
          BV   60            
         IBV    1.000000E-03 


               X_U1.X1.XD3.IDIODE 
          IS   10.000000E-15 
           N     .01         
          BV   60            
         IBV    1.000000E-03 


               X_U1.X1.XD2.IDIODE 
          IS   10.000000E-15 
           N     .01         
          BV   60            
         IBV    1.000000E-03 


               X_U1.X1.XD1.IDIODE 
          IS   10.000000E-15 
           N     .01         
          BV   60            
         IBV    1.000000E-03 


               X_U1.X1.XU4.DVNF                X_U1.X1.XU3.DVN 
          IS  100.000000E-18                  100.000000E-18 
          KF   31.622780E-12                   31.622780E-12 


               X_U2.X1.XD4.IDIODE 
          IS   10.000000E-15 
           N     .01         
          BV   60            
         IBV    1.000000E-03 


               X_U2.X1.XD3.IDIODE 
          IS   10.000000E-15 
           N     .01         
          BV   60            
         IBV    1.000000E-03 


               X_U2.X1.XD2.IDIODE 
          IS   10.000000E-15 
           N     .01         
          BV   60            
         IBV    1.000000E-03 


               X_U2.X1.XD1.IDIODE 
          IS   10.000000E-15 
           N     .01         
          BV   60            
         IBV    1.000000E-03 


               X_U2.X1.XU4.DVNF                X_U2.X1.XU3.DVN 
          IS  100.000000E-18                  100.000000E-18 
          KF   31.622780E-12                   31.622780E-12 


               X_U3.X1.XD4.IDIODE 
          IS   10.000000E-15 
           N     .01         
          BV   60            
         IBV    1.000000E-03 


               X_U3.X1.XD3.IDIODE 
          IS   10.000000E-15 
           N     .01         
          BV   60            
         IBV    1.000000E-03 


               X_U3.X1.XD2.IDIODE 
          IS   10.000000E-15 
           N     .01         
          BV   60            
         IBV    1.000000E-03 


               X_U3.X1.XD1.IDIODE 
          IS   10.000000E-15 
           N     .01         
          BV   60            
         IBV    1.000000E-03 


               X_U3.X1.XU4.DVNF                X_U3.X1.XU3.DVN 
          IS  100.000000E-18                  100.000000E-18 
          KF   31.622780E-12                   31.622780E-12 


Starting pseudo-transient algorithm.

INFO(ORPSIM-16594): To improve Pseudotransient Convergence and Performance, set following options to relax stabilization criteria for capacitor currents and inductor voltages: PTRANABSTOL=1e-5, PTRANVNTOL=1e-4

ERROR -- Convergence problem in bias point calculation


  Last node voltages tried were:

 NODE   VOLTAGE     NODE   VOLTAGE     NODE   VOLTAGE     NODE   VOLTAGE


( +15V)   15.0000  ( -15V)  -15.0000  (N00264)    0.0000 (N06065) 101.7E-06     

(N08538)     .0027 (N09521)     .0027 (N10192)    0.0000 (N10196)-501.0E-06     

(N10784)-371.7E-06 (N11102)    -.9285 (N11106)   -1.0064 (N11907)   -1.0015     

(N11921)   -1.0140 (N14368)-271.1E-06 (N16088)   -1.0139 (N16095)    -.0212     

(N16271)    -.0213 (N16385)     .0061 (N060391)-28.27E-06                       

(N060392)    -.0067                   (N060393)     .0069                       

(N101220)     .0064                   (N101662)    -.0072                       

(N159840)   -1.0071                   (N160062)   -1.0207                       

(X_U1.X1.5) 101.7E-06                 (X_U1.X1.6) 101.7E-06                     

(X_U1.X1.8)     .0027                 (X_U1.X1.9)     .0027                     

(X_U2.X1.5)-370.5E-06                 (X_U2.X1.6)-370.2E-06                     

(X_U2.X1.8)   -1.0064                 (X_U2.X1.9)   -1.0923                     

(X_U3.X1.5)   -1.0139                 (X_U3.X1.6)   -1.0139                     

(X_U3.X1.8)    -.0212                 (X_U3.X1.9)    -.0212                     

(X_U1.X1.10)     .0027                (X_U1.X1.14)     .0027                    

(X_U1.X1.15) 101.7E-06                (X_U1.X1.16) 101.7E-06                    

(X_U1.X1.17)-28.28E-06                (X_U1.X1.18)     .0027                    

(X_U1.X1.19) 101.7E-06                (X_U1.X1.20) 101.7E-06                    

(X_U1.X1.21)-28.28E-06                (X_U2.X1.10)   -1.0070                    

(X_U2.X1.14)   -1.0923                (X_U2.X1.15)-370.2E-06                    

(X_U2.X1.16)-370.5E-06                (X_U2.X1.17)-500.2E-06                    

(X_U2.X1.18)   -1.0064                (X_U2.X1.19)-370.5E-06                    

(X_U2.X1.20)-370.4E-06                (X_U2.X1.21)-500.2E-06                    

(X_U3.X1.10)    -.0212                (X_U3.X1.14)    -.0212                    

(X_U3.X1.15)   -1.0139                (X_U3.X1.16)   -1.0139                    

(X_U3.X1.17)   -1.0140                (X_U3.X1.18)    -.0212                    

(X_U3.X1.19)   -1.0139                (X_U3.X1.20)   -1.0139                    

(X_U3.X1.21)   -1.0140                (X_U1.X1.GNDF) 101.7E-06                  

(X_U2.X1.GNDF)-369.8E-06              (X_U3.X1.GNDF)   -1.0139                  

(X_U1.X1.Vimon) 15.65E-09             (X_U1.X1.XU3.3)    0.0000                 

(X_U1.X1.XU3.4)    0.0000             (X_U1.X1.XU3.5)    0.0000                 

(X_U1.X1.XU3.6)    0.0000             (X_U1.X1.XU3.7)     .8338                 

(X_U1.X1.XU3.8)     .8338             (X_U1.X1.XU4.3)    0.0000                 

(X_U1.X1.XU4.4)    0.0000             (X_U1.X1.XU4.5)    0.0000                 

(X_U1.X1.XU4.6)    0.0000             (X_U1.X1.XU4.7)     .8338                 

(X_U1.X1.XU4.8)     .8338             (X_U1.X1.XU7.1) 101.7E-06                 

(X_U1.X1.XU7.2) 101.7E-06             (X_U1.X1.XU8.1) 101.7E-06                 

(X_U1.X1.XU8.2) 101.7E-06             (X_U2.X1.Vimon)-46.34E-06                 

(X_U2.X1.XU3.3)-1.735E-18             (X_U2.X1.XU3.4)-867.4E-21                 

(X_U2.X1.XU3.5)    0.0000             (X_U2.X1.XU3.6)-867.4E-21                 

(X_U2.X1.XU3.7)     .8338             (X_U2.X1.XU3.8)     .8338                 

(X_U2.X1.XU4.3)    0.0000             (X_U2.X1.XU4.4)    0.0000                 

(X_U2.X1.XU4.5)    0.0000             (X_U2.X1.XU4.6)    0.0000                 

(X_U2.X1.XU4.7)     .8338             (X_U2.X1.XU4.8)     .8338                 

(X_U2.X1.XU7.1)-369.8E-06             (X_U2.X1.XU7.2)-369.8E-06                 

(X_U2.X1.XU8.1)-369.8E-06             (X_U2.X1.XU8.2)-369.8E-06                 

(X_U3.X1.Vimon) 382.5E-09             (X_U3.X1.XU3.3)    0.0000                 

(X_U3.X1.XU3.4)    0.0000             (X_U3.X1.XU3.5)    0.0000                 

(X_U3.X1.XU3.6)    0.0000             (X_U3.X1.XU3.7)     .8338                 

(X_U3.X1.XU3.8)     .8338             (X_U3.X1.XU4.3) 444.1E-18                 

(X_U3.X1.XU4.4) 444.1E-18             (X_U3.X1.XU4.5)    0.0000                 

(X_U3.X1.XU4.6) 444.1E-18             (X_U3.X1.XU4.7)     .8338                 

(X_U3.X1.XU4.8)     .8338             (X_U3.X1.XU7.1)   -1.0139                 

(X_U3.X1.XU7.2)   -1.0139             (X_U3.X1.XU8.1)   -1.0139                 

(X_U3.X1.XU8.2)   -1.0139             (X_U1.X1.NET126)    -.4194                

(X_U1.X1.NET128)  -25.1300            (X_U2.X1.NET126)   25.3370                

(X_U2.X1.NET128)     .6258            (X_U3.X1.NET126)   -1.5160                

(X_U3.X1.NET128)  -26.2270            (X_U1.X1.XU11.VP1)     .0027              

(X_U1.X1.XU11.VP2)     .0027          (X_U1.X1.XU11.VP3)     .0027              

(X_U1.X1.XU11.VP4)     .0027          (X_U1.X1.XU11.VX1) 101.7E-06              

(X_U1.X1.XU11.VX2) 101.7E-06          (X_U1.X1.XU11.VX3) 101.7E-06              

(X_U1.X1.XU11.VX4) 101.7E-06          (X_U1.X1.XU11.VX5) 101.7E-06              

(X_U1.X1.XU11.VZ1)     .0027          (X_U1.X1.XU11.VZ2)     .0027              

(X_U1.X1.XU11.VZ3)     .0027          (X_U1.X1.XU11.VZ4)     .0027              

(X_U2.X1.XU11.VP1)   -1.0923          (X_U2.X1.XU11.VP2)   -1.0923              

(X_U2.X1.XU11.VP3)   -1.0923          (X_U2.X1.XU11.VP4)   -1.0923              

(X_U2.X1.XU11.VX1)-369.8E-06          (X_U2.X1.XU11.VX2)-369.8E-06              

(X_U2.X1.XU11.VX3)-369.8E-06          (X_U2.X1.XU11.VX4)-369.8E-06              

(X_U2.X1.XU11.VX5)-369.3E-06          (X_U2.X1.XU11.VZ1)   -1.0923              

(X_U2.X1.XU11.VZ2)   -1.0923          (X_U2.X1.XU11.VZ3)   -1.0923              

(X_U2.X1.XU11.VZ4)   -1.0923          (X_U3.X1.XU11.VP1)    -.0212              

(X_U3.X1.XU11.VP2)    -.0212          (X_U3.X1.XU11.VP3)    -.0212              

(X_U3.X1.XU11.VP4)    -.0212          (X_U3.X1.XU11.VX1)   -1.0139              

(X_U3.X1.XU11.VX2)   -1.0139          (X_U3.X1.XU11.VX3)   -1.0139              

(X_U3.X1.XU11.VX4)   -1.0139          (X_U3.X1.XU11.VX5)   -1.0139              

(X_U3.X1.XU11.VZ1)    -.0212          (X_U3.X1.XU11.VZ2)    -.0212              

(X_U3.X1.XU11.VZ3)    -.0212          (X_U3.X1.XU11.VZ4)    -.0212              

(X_U1.X1.XU5.VDD_CLP)   -1.0068       (X_U1.X1.XU5.VSS_CLP)    1.0068           

(X_U2.X1.XU5.VDD_CLP)   -1.0066       (X_U2.X1.XU5.VSS_CLP)    1.0070           

(X_U3.X1.XU5.VDD_CLP)   -1.0068       (X_U3.X1.XU5.VSS_CLP)    1.0068       


  These voltages failed to converge:

    V(X_U3.X1.NET126)         =    -1.490V  \    -1.516V

  These supply currents failed to converge:

    I(X_U1.X1.XU9.EGNDF)      =   -20.20nA  \   -8.837nA
    I(X_U1.X1.XU8.E1)         =    4.500nA  \   -5.964nA
    I(X_U1.X1.XU7.E1)         =   -4.500nA  \    5.964nA
    I(X_U1.X1.XU3.E3)         =    15.43nA  \    12.84nA
    I(X_U2.X1.XU9.EGNDF)      =    9.001uA  \    26.19uA
    I(X_U2.X1.XU8.E1)         =    4.500nA  \   -12.53uA
    I(X_U2.X1.XU7.E1)         =   -4.500nA  \    12.53uA
    I(X_U2.X1.XU3.E3)         =  -139.48nA  \   -7.551uA
    I(X_U3.X1.XU9.EGNDF)      =   -4.055uA  \  -748.34nA
    I(X_U3.X1.XU5.ECLAMP)     =   -3.072nA  \  -382.54nA
    I(X_U3.X1.XU8.E1)         =    4.508nA  \    28.85uA
    I(X_U3.X1.XU7.E1)         =   -4.508nA  \   -28.85uA
    I(X_U3.X1.XU3.E3)         =  -420.23nA  \   -32.54uA
    I(V_V5)                   =    15.02mA  \   -1.826uA
    I(V_V6)                   =   -15.02mA  \   -1.971uA
    I(V_V7)                   =    7.868uA  \    7.562uA
    I(X_U1.X1.Vos)            =   -15.50nA  \   -12.84nA
    I(X_U2.X1.Vos)            =   -15.50nA  \    7.551uA
    I(X_U3.X1.Vos)            =   -15.50nA  \    32.55uA
    I(X_U3.X1.XU6.VSENSE)     =    3.072nA  \   382.54nA

  These devices failed to converge:
    X_U3.X1.DPASSTOP X_U3.X1.DBLOCKTOP X_U3.X1.DBLOCKBOTTOM X_U1.X1.XD4.D1 
    X_U1.X1.XD3.D1 X_U1.X1.XD2.D1 X_U1.X1.XD1.D1 X_U2.X1.XD4.D1 X_U2.X1.XD3.D1 
    X_U2.X1.XD2.D1 X_U2.X1.XD1.D1 X_U3.X1.XD4.D1 X_U3.X1.XD3.D1 X_U3.X1.XD2.D1 
    X_U3.X1.XD1.D1 

**** Interrupt ****
