
**** 08/08/25 16:47:36 **** PSpice 23.1.0 (30 January 2024) *** ID# 0 ********

 ** Profile: "SCHEMATIC1-TEST"  [ D:\Otros\Electrónica\PhonoPreamp\Simulations\phonopreamp-pspicefiles\schematic1\test.sim ] 


 ****     CIRCUIT DESCRIPTION


******************************************************************************




** Creating circuit file "TEST.cir" 
** WARNING: THIS AUTOMATICALLY GENERATED FILE MAY BE OVERWRITTEN BY SUBSEQUENT SIMULATIONS

*Libraries: 
* Profile Libraries :
* Local Libraries :
* From [PSPICE NETLIST] section of C:\cds_spb_home\cdssetup\OrCAD_PSpiceTIPSpice_Install\23.1.0\PSpice.ini file:
.lib "nom_pspti.lib" 
.lib "nom.lib" 

*Analysis directives: 
.AC DEC 100 20 20000
.OPTIONS ADVCONV
.OPTIONS FILEMODELSEARCH
.PROBE64 V(alias(*)) I(alias(*)) W(alias(*)) D(alias(*)) NOISE(alias(*)) 
.INC "..\SCHEMATIC1.net" 



**** INCLUDING SCHEMATIC1.net ****
* source PHONOPREAMP
V_V1         VCC 0 12Vdc
V_V2         0 VEE 12Vdc
R_R1         0 N00420  150k TC=0,0 
C_C1         0 N00420  100p  TC=0,0 
R_R2         0 N00426  68.1k TC=0,0 
X_U1         N02071 N00426 VCC VEE N02631 LM4562 
R_R3         N006951 N02071  221 TC=0,0 
C_C2         0 N006951  220u  TC=0,0 
X_U2         N02071 N01030 VCC VEE N01098 LF353
R_R4         N01030 N009500  221 TC=0,0 
C_C3         N009500 0  220u  TC=0,0 
R_R5         N01098 N01030  4.22k TC=0,0 
R_R6         N01250 N01098  2k TC=0,0 
X_U3         0 N01250 VCC VEE N01384 LF353
R_R7         N01384 N01250  2k TC=0,0 
C_C4         N00420 N00426  1u  TC=0,0 
R_R8         N00426 N01384  1MEG TC=0,0 
R_R9         N02071 N02428  5.23k TC=0,0 
R_R10         N02428 N02631  63.4k TC=0,0 
C_C5         N02071 N02428  14.321n  TC=0,0 
C_C7         N02428 N02631  50n  TC=0,0 
C_C10         N02631 N03175  1u  TC=0,0 
C_C11         N03175 N03189  1u  TC=0,0 
C_C12         N03189 N03193  1u  TC=0,0 
R_R11         0 N03175  8.06k TC=0,0 
R_R12         0 N03193  31.6k TC=0,0 
R_R13         N03189 N03345  5.62k TC=0,0 
X_U4         N03193 N03345 VCC VEE N03345 LF353
C_C13         N03345 N033921  2.2u  TC=0,0 
R_R14         N033921 N03931  1.18k TC=0,0 
C_C14         0 N03931  2.2n  TC=0,0 
R_R15         0 N03931  23.2k TC=0,0 
X_U5         N03931 N04450 VCC VEE N04462 LF353
C_C15         N04450 N04462  100p  TC=0,0 
R_R16         N04450 N04549  24.9k TC=0,0 
C_C16         N04450 N04549  0.1u  TC=0,0 
X_R17         N045841 N04549 N04462 POT PARAMS: SET={GAIN} VALUE=3k
R_R18         N047341 N045841  1k TC=0,0 
C_C17         0 N047341  220u  TC=0,0 
R_R19         N06228 N04462  1k TC=0,0 
R_R20         0 N06228  100k TC=0,0 
V_V4         N00420 0 DC 0Vdc AC 0.1Vac 
X_U6         N11511 N11574 VCC VEE N11719 OPA161X
V_V5         N11064 0 DC 0Vdc AC 0.005Vac 
R_R21         0 N11064  47k TC=0,0 
C_C18         0 N11064  100p  TC=0,0 
C_C19         N11574 N11715  22n  TC=0,0 
R_R22         N11519 N11574  4.7k TC=0,0 
R_R23         N11064 N11511  2.2k TC=0,0 
C_C20         0 N11519  22u  TC=0,0 
R_R24         N11574 N11719  180k TC=0,0 
R_R25         N11715 N11719  10k TC=0,0 
X_U7         N13276 N11817 VCC VEE N12305 OPA161X
R_R26         N11942 N11817  2.7k TC=0,0 
C_C21         0 N11942  22u  TC=0,0 
R_R27         N11817 N12305  100k TC=0,0 
R_R28         N12305 N12291  750 TC=0,0 
C_C22         0 N12291  100n  TC=0,0 
R_R29         0 N12265  100k TC=0,0 
C_C23         N12291 N12265  1u  TC=0,0 
X_U8         N13350 N13140 VCC VEE N13140 LF353
C_C27         N13266 N13350  1u  TC=0,0 
R_R30         N13266 N13140  47.5k TC=0,0 
C_C24         N13140 N13276  1u  TC=0,0 
R_R33         0 N13350  90.9k TC=0,0 
C_C26         N14457 N13266  1u  TC=0,0 
.PARAM  gain=0.5

**** RESUMING TEST.cir ****
.END

INFO(ORPSIM-16573): AC analysis does not support expression evaluation at each frequency. ABM devices with non-linear operations will be evaluated only at bias point.

ERROR(ORPSIM-15141): Less than 2 connections at node N14457.

ERROR(ORPSIM-15142): Node N14457 is floating
