
**** 05/16/24 15:31:11 **** PSpice 23.1.0 (30 January 2024) *** ID# 0 ********

 ** Profile: "SCHEMATIC1-TEST"  [ e:\otros\electrónica\phonopreamp\simulations\phonopreamp3\phonopreamp3-pspicefiles\schematic1\test.


 ****     CIRCUIT DESCRIPTION


******************************************************************************




** Creating circuit file "TEST.cir" 
** WARNING: THIS AUTOMATICALLY GENERATED FILE MAY BE OVERWRITTEN BY SUBSEQUENT SIMULATIONS

*Libraries: 
* Profile Libraries :
* Local Libraries :
* From [PSPICE NETLIST] section of C:\cds_spb_home\cdssetup\OrCAD_PSpiceTIPSpice_Install\23.1.0\PSpice.ini file:
.lib "nom_pspti.lib" 
.lib "nom.lib" 

*Analysis directives: 
.AC DEC 100 20 20000
.STEP LIN PARAM GAIN 0 1 0.1 
.OPTIONS ADVCONV
.OPTIONS FILEMODELSEARCH
.PROBE64 V(alias(*)) I(alias(*)) W(alias(*)) D(alias(*)) NOISE(alias(*)) 
.INC "..\SCHEMATIC1.net" 



**** INCLUDING SCHEMATIC1.net ****
* source PHONOPREAMP3
V_V1         VCC 0 12Vdc
V_V2         0 VEE 12Vdc
V_V3         N00420 0 DC 0Vdc AC 1Vac 
R_R1         0 N00420  150k TC=0,0 
C_C1         0 N00420  100p  TC=0,0 
R_R2         0 N00426  68.1k TC=0,0 
X_U1         N02071 N00426 VCC VEE N02631 LM4562 
R_R3         N006951 N02071  221 TC=0,0 
C_C2         0 N006951  220u  TC=0,0 
X_U2         N02071 N01030 VCC VEE N01098 LF353
R_R4         N01030 N009500  221 TC=0,0 
C_C3         N009500 0  220u  TC=0,0 
R_R5         N01098 N01030  4.22k TC=0,0 
R_R6         N01250 N01098  2k TC=0,0 
X_U3         0 N01250 VCC VEE N01384 LF353
R_R7         N01384 N01250  2k TC=0,0 
C_C4         N00420 N00426  1u  TC=0,0 
R_R8         N00426 N01384  1MEG TC=0,0 
R_R9         N02071 N02428  5.23k TC=0,0 
R_R10         N02428 N02631  63.4k TC=0,0 
C_C5         N02071 N02428  14.321n  TC=0,0 
C_C7         N02428 N02631  50n  TC=0,0 
C_C10         N02631 N03175  1u  TC=0,0 
C_C11         N03175 N03189  1u  TC=0,0 
C_C12         N03189 N03193  1u  TC=0,0 
R_R11         0 N03175  8.06k TC=0,0 
R_R12         0 N03193  31.6k TC=0,0 
R_R13         N03189 N03345  5.62k TC=0,0 
X_U4         N03193 N03345 VCC VEE N03345 LF353
C_C13         N03345 N033921  2.2u  TC=0,0 
R_R14         N033921 N03931  1.18k TC=0,0 
C_C14         0 N03931  2.2n  TC=0,0 
R_R15         0 N03931  23.2k TC=0,0 
X_U5         N03931 N04450 VCC VEE N04462 LF353
C_C15         N04450 N04462  100p  TC=0,0 
R_R16         N04450 N04549  24.9k TC=0,0 
C_C16         N04450 N04549  0.1u  TC=0,0 
X_R17         N045841 N04549 N04462 POT PARAMS: SET={GAIN} VALUE=3k
R_R18         N047341 N045841  1k TC=0,0 
C_C17         0 N047341  220u  TC=0,0 
R_R19         N06228 N04462  1k TC=0,0 
R_R20         0 N06228  100k TC=0,0 
.PARAM  gain=0.5

**** RESUMING TEST.cir ****
.END

INFO(ORPSIM-16573): AC analysis does not support expression evaluation at each frequency. ABM devices with non-linear operations will be evaluated only at bias point.

**** 05/16/24 15:31:11 **** PSpice 23.1.0 (30 January 2024) *** ID# 0 ********

 ** Profile: "SCHEMATIC1-TEST"  [ e:\otros\electrónica\phonopreamp\simulations\phonopreamp3\phonopreamp3-pspicefiles\schematic1\test.


 ****     Diode MODEL PARAMETERS


******************************************************************************




               X_U2.DX         X_U3.DX         X_U4.DX         X_U5.DX         
          IS  800.000000E-18  800.000000E-18  800.000000E-18  800.000000E-18 


               X_U1.X1.DDEFAULT                X_U1.X1.DBLOCK  
          IS  800.000000E-18                  800.000000E-18 
          BV   25            


               X_U1.X1.XD4.IDIODE 
          IS   10.000000E-15 
           N     .01         
          BV   60            
         IBV    1.000000E-03 


               X_U1.X1.XD3.IDIODE 
          IS   10.000000E-15 
           N     .01         
          BV   60            
         IBV    1.000000E-03 


               X_U1.X1.XD2.IDIODE 
          IS   10.000000E-15 
           N     .01         
          BV   60            
         IBV    1.000000E-03 


               X_U1.X1.XD1.IDIODE 
          IS   10.000000E-15 
           N     .01         
          BV   60            
         IBV    1.000000E-03 


               X_U1.X1.XU4.DVNF                X_U1.X1.XU3.DVN 
          IS  100.000000E-18                  100.000000E-18 
          KF   31.622780E-12                   31.622780E-12 


**** 05/16/24 15:31:11 **** PSpice 23.1.0 (30 January 2024) *** ID# 0 ********

 ** Profile: "SCHEMATIC1-TEST"  [ e:\otros\electrónica\phonopreamp\simulations\phonopreamp3\phonopreamp3-pspicefiles\schematic1\test.


 ****     Junction FET MODEL PARAMETERS


******************************************************************************




               X_U2.JX         X_U3.JX         X_U4.JX         X_U5.JX         
               PJF             PJF             PJF             PJF             
         VTO   -1              -1              -1              -1            
        BETA  250.100000E-06  250.100000E-06  250.100000E-06  250.100000E-06 
          IS   12.500000E-12   12.500000E-12   12.500000E-12   12.500000E-12 


**** 05/16/24 15:31:11 **** PSpice 23.1.0 (30 January 2024) *** ID# 0 ********

 ** Profile: "SCHEMATIC1-TEST"  [ e:\otros\electrónica\phonopreamp\simulations\phonopreamp3\phonopreamp3-pspicefiles\schematic1\test.


 ****     SMALL SIGNAL BIAS SOLUTION       TEMPERATURE =   27.000 DEG C

 ****     CURRENT STEP                     PARAM GAIN =    0     


******************************************************************************



 NODE   VOLTAGE     NODE   VOLTAGE     NODE   VOLTAGE     NODE   VOLTAGE


(  VCC)   12.0000  (  VEE)  -12.0000  (N00420)    0.0000 (N00426)-934.5E-06     

(N01030)-826.6E-06 (N01098)-826.5E-06 (N01250) 1.899E-06 (N01384) 830.3E-06     

(N02071)-828.5E-06 (N02428)-804.8E-06 (N02631)-516.4E-06 (N03175)    0.0000     

(N03189) 737.5E-09 (N03193)-1.170E-06 (N03345) 737.5E-09 (N03931)-859.1E-09     

(N04450) 1.048E-06 (N04462) 1.971E-06 (N04549) 1.971E-06 (N06228) 1.951E-06     

(X_U2.6) 259.4E-09 (X_U2.7)-847.2E-06 (X_U2.8)-847.2E-06 (X_U2.9)    0.0000     

(X_U3.6)-260.7E-09 (X_U3.7) 851.1E-06 (X_U3.8) 851.1E-06 (X_U3.9)    0.0000     

(X_U4.6)-225.2E-12 (X_U4.7) 739.3E-09 (X_U4.8) 739.3E-09 (X_U4.9)    0.0000     

(X_U5.6)-600.9E-12 (X_U5.7) 1.973E-06 (X_U5.8) 1.973E-06 (X_U5.9)    0.0000     

(N006951)-828.5E-06                   (N009500)-826.6E-06                       

(N033921)-859.1E-09                   (N045841) 1.971E-06                       

(N047341) 1.971E-06                   (X_U2.10)    -.3759                       

(X_U2.11)  -11.6550                   (X_U2.12)  -11.6550                       

(X_U2.53)    9.8000                   (X_U2.54)   -9.8000                       

(X_U2.90)-414.1E-06                   (X_U2.91)   30.0000                       

(X_U2.92)  -30.0000                   (X_U2.99)    0.0000                       

(X_U3.10)    -.3750                   (X_U3.11)  -11.6550                       

(X_U3.12)  -11.6550                   (X_U3.53)    9.8000                       

(X_U3.54)   -9.8000                   (X_U3.90) 416.0E-06                       

(X_U3.91)   30.0000                   (X_U3.92)  -30.0000                       

(X_U3.99)    0.0000                   (X_U4.10)    -.3750                       

(X_U4.11)  -11.6550                   (X_U4.12)  -11.6550                       

(X_U4.53)    9.8000                   (X_U4.54)   -9.8000                       

(X_U4.90) 37.03E-09                   (X_U4.91)   30.0000                       

(X_U4.92)  -30.0000                   (X_U4.99)    0.0000                       

(X_U5.10)    -.3750                   (X_U5.11)  -11.6550                       

(X_U5.12)  -11.6550                   (X_U5.53)    9.8000                       

(X_U5.54)   -9.8000                   (X_U5.90) 56.54E-09                       

(X_U5.91)   30.0000                   (X_U5.92)  -30.0000                       

(X_U5.99)    0.0000                   (X_U1.X1.5)-804.5E-06                     

(X_U1.X1.6)-804.5E-06                 (X_U1.X1.8)-518.9E-06                     

(X_U1.X1.9)-518.8E-06                 (X_U1.X1.10)-518.8E-06                    

(X_U1.X1.14)-518.8E-06                (X_U1.X1.15)-804.5E-06                    

(X_U1.X1.16)-804.5E-06                (X_U1.X1.17)-934.5E-06                    

(X_U1.X1.18)-518.9E-06                (X_U1.X1.19)-804.5E-06                    

(X_U1.X1.20)-828.5E-06                (X_U1.X1.21)-934.5E-06                    

(X_U1.X1.GNDF)    0.0000              (X_U1.X1.Vimon) 4.549E-09                 

(X_U1.X1.XU3.3)    0.0000             (X_U1.X1.XU3.4)    0.0000                 

(X_U1.X1.XU3.5)    0.0000             (X_U1.X1.XU3.6)    0.0000                 

(X_U1.X1.XU3.7)     .8338             (X_U1.X1.XU3.8)     .8338                 

(X_U1.X1.XU4.3)    0.0000             (X_U1.X1.XU4.4)    0.0000                 

(X_U1.X1.XU4.5)    0.0000             (X_U1.X1.XU4.6)    0.0000                 

(X_U1.X1.XU4.7)     .8338             (X_U1.X1.XU4.8)     .8338                 

(X_U1.X1.XU7.1) 24.00E-06             (X_U1.X1.XU7.2)    0.0000                 

(X_U1.X1.XU8.1)-254.4E-12             (X_U1.X1.XU8.2)    0.0000                 

(X_U1.X1.NET126)   11.5980            (X_U1.X1.NET128)  -25.0980                

(X_U1.X1.XU11.VP1)-518.8E-06          (X_U1.X1.XU11.VP2)-518.8E-06              

(X_U1.X1.XU11.VP3)-518.8E-06          (X_U1.X1.XU11.VP4)-518.8E-06              

(X_U1.X1.XU11.VX1)    0.0000          (X_U1.X1.XU11.VX2)    0.0000              

(X_U1.X1.XU11.VX3) 108.4E-21          (X_U1.X1.XU11.VX4)    0.0000              

(X_U1.X1.XU11.VX5)    0.0000          (X_U1.X1.XU11.VZ1)-518.8E-06              

(X_U1.X1.XU11.VZ2)-518.8E-06          (X_U1.X1.XU11.VZ3)-518.8E-06              

(X_U1.X1.XU11.VZ4)-518.8E-06          (X_U1.X1.XU5.VDD_CLP)   11.0000           

(X_U1.X1.XU5.VSS_CLP)  -11.0000       




    VOLTAGE SOURCE CURRENTS
    NAME         CURRENT

    V_V1        -1.218E-02
    V_V2        -1.218E-02
    V_V3         0.000E+00
    X_U2.VB      2.594E-12
    X_U2.VC      9.802E-12
    X_U2.VE      9.800E-12
    X_U2.VLIM   -4.141E-07
    X_U2.VLP    -3.000E-11
    X_U2.VLN    -3.000E-11
    X_U3.VB     -2.607E-12
    X_U3.VC      9.800E-12
    X_U3.VE      9.802E-12
    X_U3.VLIM    4.160E-07
    X_U3.VLP    -3.000E-11
    X_U3.VLN    -3.000E-11
    X_U4.VB     -2.252E-15
    X_U4.VC      9.801E-12
    X_U4.VE      9.801E-12
    X_U4.VLIM    3.703E-11
    X_U4.VLP    -3.000E-11
    X_U4.VLN    -3.000E-11
    X_U5.VB     -6.009E-15
    X_U5.VC      9.801E-12
    X_U5.VE      9.801E-12
    X_U5.VLIM    5.654E-11
    X_U5.VLP    -3.000E-11
    X_U5.VLN    -3.000E-11
    X_U1.X1.Vos  -1.549E-08
    X_U1.X1.XU6.VSENSE   4.549E-09

    TOTAL POWER DISSIPATION   2.92E-01  WATTS


**** 05/16/24 15:31:11 **** PSpice 23.1.0 (30 January 2024) *** ID# 0 ********

 ** Profile: "SCHEMATIC1-TEST"  [ e:\otros\electrónica\phonopreamp\simulations\phonopreamp3\phonopreamp3-pspicefiles\schematic1\test.


 ****     SMALL SIGNAL BIAS SOLUTION       TEMPERATURE =   27.000 DEG C

 ****     CURRENT STEP                     PARAM GAIN =     .1   


******************************************************************************



 NODE   VOLTAGE     NODE   VOLTAGE     NODE   VOLTAGE     NODE   VOLTAGE


(  VCC)   12.0000  (  VEE)  -12.0000  (N00420)    0.0000 (N00426)-934.5E-06     

(N01030)-826.6E-06 (N01098)-826.5E-06 (N01250) 1.899E-06 (N01384) 830.3E-06     

(N02071)-828.5E-06 (N02428)-804.8E-06 (N02631)-516.3E-06 (N03175)    0.0000     

(N03189) 737.5E-09 (N03193)-1.170E-06 (N03345) 737.5E-09 (N03931)-859.1E-09     

(N04450) 1.048E-06 (N04462) 1.982E-06 (N04549) 1.971E-06 (N06228) 1.962E-06     

(X_U2.6) 259.4E-09 (X_U2.7)-847.2E-06 (X_U2.8)-847.2E-06 (X_U2.9)    0.0000     

(X_U3.6)-260.7E-09 (X_U3.7) 851.1E-06 (X_U3.8) 851.1E-06 (X_U3.9)    0.0000     

(X_U4.6)-225.2E-12 (X_U4.7) 739.3E-09 (X_U4.8) 739.3E-09 (X_U4.9)    0.0000     

(X_U5.6)-604.3E-12 (X_U5.7) 1.984E-06 (X_U5.8) 1.984E-06 (X_U5.9)    0.0000     

(N006951)-828.5E-06                   (N009500)-826.6E-06                       

(N033921)-859.1E-09                   (N045841) 1.971E-06                       

(N047341) 1.971E-06                   (X_U2.10)    -.3759                       

(X_U2.11)  -11.6550                   (X_U2.12)  -11.6550                       

(X_U2.53)    9.8000                   (X_U2.54)   -9.8000                       

(X_U2.90)-414.1E-06                   (X_U2.91)   30.0000                       

(X_U2.92)  -30.0000                   (X_U2.99)    0.0000                       

(X_U3.10)    -.3750                   (X_U3.11)  -11.6550                       

(X_U3.12)  -11.6550                   (X_U3.53)    9.8000                       

(X_U3.54)   -9.8000                   (X_U3.90) 416.0E-06                       

(X_U3.91)   30.0000                   (X_U3.92)  -30.0000                       

(X_U3.99)    0.0000                   (X_U4.10)    -.3750                       

(X_U4.11)  -11.6550                   (X_U4.12)  -11.6550                       

(X_U4.53)    9.8000                   (X_U4.54)   -9.8000                       

(X_U4.90) 37.03E-09                   (X_U4.91)   30.0000                       

(X_U4.92)  -30.0000                   (X_U4.99)    0.0000                       

(X_U5.10)    -.3750                   (X_U5.11)  -11.6550                       

(X_U5.12)  -11.6550                   (X_U5.53)    9.8000                       

(X_U5.54)   -9.8000                   (X_U5.90) 56.65E-09                       

(X_U5.91)   30.0000                   (X_U5.92)  -30.0000                       

(X_U5.99)    0.0000                   (X_U1.X1.5)-804.5E-06                     

(X_U1.X1.6)-804.5E-06                 (X_U1.X1.8)-516.3E-06                     

(X_U1.X1.9)-516.3E-06                 (X_U1.X1.10)-516.3E-06                    

(X_U1.X1.14)-516.3E-06                (X_U1.X1.15)-804.5E-06                    

(X_U1.X1.16)-804.5E-06                (X_U1.X1.17)-934.5E-06                    

(X_U1.X1.18)-516.3E-06                (X_U1.X1.19)-804.5E-06                    

(X_U1.X1.20)-828.5E-06                (X_U1.X1.21)-934.5E-06                    

(X_U1.X1.GNDF)    0.0000              (X_U1.X1.Vimon) 4.549E-09                 

(X_U1.X1.XU3.3)    0.0000             (X_U1.X1.XU3.4)    0.0000                 

(X_U1.X1.XU3.5)    0.0000             (X_U1.X1.XU3.6)    0.0000                 

(X_U1.X1.XU3.7)     .8338             (X_U1.X1.XU3.8)     .8338                 

(X_U1.X1.XU4.3)    0.0000             (X_U1.X1.XU4.4)    0.0000                 

(X_U1.X1.XU4.5)    0.0000             (X_U1.X1.XU4.6)    0.0000                 

(X_U1.X1.XU4.7)     .8338             (X_U1.X1.XU4.8)     .8338                 

(X_U1.X1.XU7.1) 24.00E-06             (X_U1.X1.XU7.2)    0.0000                 

(X_U1.X1.XU8.1)-254.4E-12             (X_U1.X1.XU8.2) 28.42E-15                 

(X_U1.X1.NET126)   11.5980            (X_U1.X1.NET128)  -25.0980                

(X_U1.X1.XU11.VP1)-516.3E-06          (X_U1.X1.XU11.VP2)-516.3E-06              

(X_U1.X1.XU11.VP3)-516.3E-06          (X_U1.X1.XU11.VP4)-516.3E-06              

(X_U1.X1.XU11.VX1)    0.0000          (X_U1.X1.XU11.VX2) 58.21E-12              

(X_U1.X1.XU11.VX3)-108.4E-21          (X_U1.X1.XU11.VX4)    0.0000              

(X_U1.X1.XU11.VX5)    0.0000          (X_U1.X1.XU11.VZ1)-516.3E-06              

(X_U1.X1.XU11.VZ2)-516.3E-06          (X_U1.X1.XU11.VZ3)-516.3E-06              

(X_U1.X1.XU11.VZ4)-516.3E-06          (X_U1.X1.XU5.VDD_CLP)   11.0000           

(X_U1.X1.XU5.VSS_CLP)  -11.0000       




    VOLTAGE SOURCE CURRENTS
    NAME         CURRENT

    V_V1        -1.218E-02
    V_V2        -1.218E-02
    V_V3         0.000E+00
    X_U2.VB      2.594E-12
    X_U2.VC      9.802E-12
    X_U2.VE      9.800E-12
    X_U2.VLIM   -4.141E-07
    X_U2.VLP    -3.000E-11
    X_U2.VLN    -3.000E-11
    X_U3.VB     -2.607E-12
    X_U3.VC      9.800E-12
    X_U3.VE      9.802E-12
    X_U3.VLIM    4.160E-07
    X_U3.VLP    -3.000E-11
    X_U3.VLN    -3.000E-11
    X_U4.VB     -2.252E-15
    X_U4.VC      9.801E-12
    X_U4.VE      9.801E-12
    X_U4.VLIM    3.703E-11
    X_U4.VLP    -3.000E-11
    X_U4.VLN    -3.000E-11
    X_U5.VB     -6.043E-15
    X_U5.VC      9.801E-12
    X_U5.VE      9.801E-12
    X_U5.VLIM    5.665E-11
    X_U5.VLP    -3.000E-11
    X_U5.VLN    -3.000E-11
    X_U1.X1.Vos  -1.549E-08
    X_U1.X1.XU6.VSENSE   4.549E-09

    TOTAL POWER DISSIPATION   2.92E-01  WATTS


Starting pseudo-transient algorithm.

INFO(ORPSIM-16594): To improve Pseudotransient Convergence and Performance, set following options to relax stabilization criteria for capacitor currents and inductor voltages: PTRANABSTOL=1e-5, PTRANVNTOL=1e-4

**** 05/16/24 15:31:11 **** PSpice 23.1.0 (30 January 2024) *** ID# 0 ********

 ** Profile: "SCHEMATIC1-TEST"  [ e:\otros\electrónica\phonopreamp\simulations\phonopreamp3\phonopreamp3-pspicefiles\schematic1\test.


 ****     SMALL SIGNAL BIAS SOLUTION       TEMPERATURE =   27.000 DEG C

 ****     CURRENT STEP                     PARAM GAIN =     .2   


******************************************************************************



 NODE   VOLTAGE     NODE   VOLTAGE     NODE   VOLTAGE     NODE   VOLTAGE


(  VCC)   12.0000  (  VEE)  -12.0000  (N00420)    0.0000 (N00426)-891.5E-06     

(N01030)-783.5E-06 (N01098)    -.0012 (N01250) 1.818E-06 (N01384)     .0012     

(N02071)-785.5E-06 (N02428)    -.0013 (N02631)    -.0074 (N03175) 437.4E-06     

(N03189)-13.59E-06 (N03193) 2.862E-06 (N03345) 4.769E-06 (N03931)-617.6E-09     

(N04450) 1.290E-06 (N04462) 2.410E-06 (N04549) 2.212E-06 (N06228) 2.386E-06     

(X_U2.6) 379.5E-09 (X_U2.7)    -.0012 (X_U2.8)    -.0012 (X_U2.9)    0.0000     

(X_U3.6)-378.8E-09 (X_U3.7)     .0012 (X_U3.8)     .0012 (X_U3.9)    0.0000     

(X_U4.6)-1.515E-09 (X_U4.7) 4.935E-06 (X_U4.8) 4.935E-06 (X_U4.9)    0.0000     

(X_U5.6)-740.4E-12 (X_U5.7) 2.428E-06 (X_U5.8) 2.428E-06 (X_U5.9)    0.0000     

(N006951)-763.5E-06                   (N009500)-761.6E-06                       

(N033921)-605.4E-09                   (N045841) 1.511E-06                       

(N047341) 1.218E-06                   (X_U2.10)    -.3758                       

(X_U2.11)  -11.6550                   (X_U2.12)  -11.6550                       

(X_U2.53)    9.8000                   (X_U2.54)   -9.8000                       

(X_U2.90)-701.8E-06                   (X_U2.91)   30.0000                       

(X_U2.92)  -30.0000                   (X_U2.99)    0.0000                       

(X_U3.10)    -.3750                   (X_U3.11)  -11.6550                       

(X_U3.12)  -11.6550                   (X_U3.53)    9.8000                       

(X_U3.54)   -9.8000                   (X_U3.90) 604.6E-06                       

(X_U3.91)   30.0000                   (X_U3.92)  -30.0000                       

(X_U3.99)    0.0000                   (X_U4.10)    -.3750                       

(X_U4.11)  -11.6550                   (X_U4.12)  -11.6550                       

(X_U4.53)    9.8000                   (X_U4.54)   -9.8000                       

(X_U4.90) 3.313E-06                   (X_U4.91)   30.0000                       

(X_U4.92)  -30.0000                   (X_U4.99)    0.0000                       

(X_U5.10)    -.3750                   (X_U5.11)  -11.6550                       

(X_U5.12)  -11.6550                   (X_U5.53)    9.8000                       

(X_U5.54)   -9.8000                   (X_U5.90) 353.3E-09                       

(X_U5.91)   30.0000                   (X_U5.92)  -30.0000                       

(X_U5.99)    0.0000                   (X_U1.X1.5)-761.5E-06                     

(X_U1.X1.6)-761.5E-06                 (X_U1.X1.8)    -.0074                     

(X_U1.X1.9)    -.0074                 (X_U1.X1.10)    -.0074                    

(X_U1.X1.14)    -.0074                (X_U1.X1.15)-761.5E-06                    

(X_U1.X1.16)-761.5E-06                (X_U1.X1.17)-891.5E-06                    

(X_U1.X1.18)    -.0074                (X_U1.X1.19)-761.5E-06                    

(X_U1.X1.20)-785.5E-06                (X_U1.X1.21)-891.5E-06                    

(X_U1.X1.GNDF)    0.0000              (X_U1.X1.Vimon)-43.75E-09                 

(X_U1.X1.XU3.3)    0.0000             (X_U1.X1.XU3.4)    0.0000                 

(X_U1.X1.XU3.5)    0.0000             (X_U1.X1.XU3.6)    0.0000                 

(X_U1.X1.XU3.7)     .8338             (X_U1.X1.XU3.8)     .8338                 

(X_U1.X1.XU4.3)    0.0000             (X_U1.X1.XU4.4)    0.0000                 

(X_U1.X1.XU4.5)    0.0000             (X_U1.X1.XU4.6)    0.0000                 

(X_U1.X1.XU4.7)     .8338             (X_U1.X1.XU4.8)     .8338                 

(X_U1.X1.XU7.1) 24.00E-06             (X_U1.X1.XU7.2)-54.21E-21                 

(X_U1.X1.XU8.1)-240.8E-12             (X_U1.X1.XU8.2)-15.07E-15                 

(X_U1.X1.NET126)   25.1570            (X_U1.X1.NET128)  -11.5390                

(X_U1.X1.XU11.VP1)    -.0074          (X_U1.X1.XU11.VP2)    -.0074              

(X_U1.X1.XU11.VP3)    -.0074          (X_U1.X1.XU11.VP4)    -.0074              

(X_U1.X1.XU11.VX1) 765.5E-15          (X_U1.X1.XU11.VX2) 765.5E-15              

(X_U1.X1.XU11.VX3) 765.5E-15          (X_U1.X1.XU11.VX4) 765.5E-15              

(X_U1.X1.XU11.VX5) 765.5E-15          (X_U1.X1.XU11.VZ1)    -.0074              

(X_U1.X1.XU11.VZ2)    -.0074          (X_U1.X1.XU11.VZ3)    -.0074              

(X_U1.X1.XU11.VZ4)    -.0074          (X_U1.X1.XU5.VDD_CLP)   11.0000           

(X_U1.X1.XU5.VSS_CLP)  -11.0000       




    VOLTAGE SOURCE CURRENTS
    NAME         CURRENT

    V_V1        -1.218E-02
    V_V2        -1.218E-02
    V_V3        -2.995E-10
    X_U2.VB      3.795E-12
    X_U2.VC      9.802E-12
    X_U2.VE      9.800E-12
    X_U2.VLIM   -7.018E-07
    X_U2.VLP    -3.000E-11
    X_U2.VLN    -3.000E-11
    X_U3.VB     -3.788E-12
    X_U3.VC      9.800E-12
    X_U3.VE      9.802E-12
    X_U3.VLIM    6.046E-07
    X_U3.VLP    -3.000E-11
    X_U3.VLN    -3.000E-11
    X_U4.VB     -1.515E-14
    X_U4.VC      9.801E-12
    X_U4.VE      9.801E-12
    X_U4.VLIM    3.313E-09
    X_U4.VLP    -3.000E-11
    X_U4.VLN    -3.000E-11
    X_U5.VB     -7.404E-15
    X_U5.VC      9.801E-12
    X_U5.VE      9.801E-12
    X_U5.VLIM    3.533E-10
    X_U5.VLP    -3.000E-11
    X_U5.VLN    -3.000E-11
    X_U1.X1.Vos  -1.549E-08
    X_U1.X1.XU6.VSENSE  -4.375E-08

    TOTAL POWER DISSIPATION   2.92E-01  WATTS


**** 05/16/24 15:31:11 **** PSpice 23.1.0 (30 January 2024) *** ID# 0 ********

 ** Profile: "SCHEMATIC1-TEST"  [ e:\otros\electrónica\phonopreamp\simulations\phonopreamp3\phonopreamp3-pspicefiles\schematic1\test.


 ****     SMALL SIGNAL BIAS SOLUTION       TEMPERATURE =   27.000 DEG C

 ****     CURRENT STEP                     PARAM GAIN =     .3   


******************************************************************************



 NODE   VOLTAGE     NODE   VOLTAGE     NODE   VOLTAGE     NODE   VOLTAGE


(  VCC)   12.0000  (  VEE)  -12.0000  (N00420)    0.0000 (N00426)-934.5E-06     

(N01030)-826.6E-06 (N01098)-826.5E-06 (N01250) 1.899E-06 (N01384) 830.3E-06     

(N02071)-828.5E-06 (N02428)-804.7E-06 (N02631)-515.1E-06 (N03175)    0.0000     

(N03189) 737.5E-09 (N03193)-1.170E-06 (N03345) 737.5E-09 (N03931)-859.1E-09     

(N04450) 1.048E-06 (N04462) 2.004E-06 (N04549) 1.971E-06 (N06228) 1.984E-06     

(X_U2.6) 259.4E-09 (X_U2.7)-847.2E-06 (X_U2.8)-847.2E-06 (X_U2.9)    0.0000     

(X_U3.6)-260.7E-09 (X_U3.7) 851.1E-06 (X_U3.8) 851.1E-06 (X_U3.9)    0.0000     

(X_U4.6)-225.2E-12 (X_U4.7) 739.3E-09 (X_U4.8) 739.3E-09 (X_U4.9)    0.0000     

(X_U5.6)-611.0E-12 (X_U5.7) 2.007E-06 (X_U5.8) 2.007E-06 (X_U5.9)    0.0000     

(N006951)-828.5E-06                   (N009500)-826.6E-06                       

(N033921)-859.1E-09                   (N045841) 1.971E-06                       

(N047341) 1.971E-06                   (X_U2.10)    -.3759                       

(X_U2.11)  -11.6550                   (X_U2.12)  -11.6550                       

(X_U2.53)    9.8000                   (X_U2.54)   -9.8000                       

(X_U2.90)-414.1E-06                   (X_U2.91)   30.0000                       

(X_U2.92)  -30.0000                   (X_U2.99)    0.0000                       

(X_U3.10)    -.3750                   (X_U3.11)  -11.6550                       

(X_U3.12)  -11.6550                   (X_U3.53)    9.8000                       

(X_U3.54)   -9.8000                   (X_U3.90) 416.0E-06                       

(X_U3.91)   30.0000                   (X_U3.92)  -30.0000                       

(X_U3.99)    0.0000                   (X_U4.10)    -.3750                       

(X_U4.11)  -11.6550                   (X_U4.12)  -11.6550                       

(X_U4.53)    9.8000                   (X_U4.54)   -9.8000                       

(X_U4.90) 37.03E-09                   (X_U4.91)   30.0000                       

(X_U4.92)  -30.0000                   (X_U4.99)    0.0000                       

(X_U5.10)    -.3750                   (X_U5.11)  -11.6550                       

(X_U5.12)  -11.6550                   (X_U5.53)    9.8000                       

(X_U5.54)   -9.8000                   (X_U5.90) 56.87E-09                       

(X_U5.91)   30.0000                   (X_U5.92)  -30.0000                       

(X_U5.99)    0.0000                   (X_U1.X1.5)-804.5E-06                     

(X_U1.X1.6)-804.5E-06                 (X_U1.X1.8)-513.1E-06                     

(X_U1.X1.9)-513.1E-06                 (X_U1.X1.10)-513.1E-06                    

(X_U1.X1.14)-512.7E-06                (X_U1.X1.15)-804.5E-06                    

(X_U1.X1.16)-804.5E-06                (X_U1.X1.17)-934.5E-06                    

(X_U1.X1.18)-513.1E-06                (X_U1.X1.19)-804.5E-06                    

(X_U1.X1.20)-828.5E-06                (X_U1.X1.21)-934.5E-06                    

(X_U1.X1.GNDF)    0.0000              (X_U1.X1.Vimon) 4.567E-09                 

(X_U1.X1.XU3.3)    0.0000             (X_U1.X1.XU3.4)    0.0000                 

(X_U1.X1.XU3.5)    0.0000             (X_U1.X1.XU3.6)    0.0000                 

(X_U1.X1.XU3.7)     .8338             (X_U1.X1.XU3.8)     .8338                 

(X_U1.X1.XU4.3)    0.0000             (X_U1.X1.XU4.4)    0.0000                 

(X_U1.X1.XU4.5)    0.0000             (X_U1.X1.XU4.6)    0.0000                 

(X_U1.X1.XU4.7)     .8338             (X_U1.X1.XU4.8)     .8338                 

(X_U1.X1.XU7.1) 24.00E-06             (X_U1.X1.XU7.2)    0.0000                 

(X_U1.X1.XU8.1)-254.4E-12             (X_U1.X1.XU8.2) 28.42E-15                 

(X_U1.X1.NET126)   11.5970            (X_U1.X1.NET128)  -25.0980                

(X_U1.X1.XU11.VP1)-512.7E-06          (X_U1.X1.XU11.VP2)-512.7E-06              

(X_U1.X1.XU11.VP3)-512.7E-06          (X_U1.X1.XU11.VP4)-512.7E-06              

(X_U1.X1.XU11.VX1)    0.0000          (X_U1.X1.XU11.VX2)    0.0000              

(X_U1.X1.XU11.VX3)    0.0000          (X_U1.X1.XU11.VX4)    0.0000              

(X_U1.X1.XU11.VX5) 108.4E-21          (X_U1.X1.XU11.VZ1)-513.1E-06              

(X_U1.X1.XU11.VZ2)-513.1E-06          (X_U1.X1.XU11.VZ3)-513.1E-06              

(X_U1.X1.XU11.VZ4)-513.1E-06          (X_U1.X1.XU5.VDD_CLP)   11.0000           

(X_U1.X1.XU5.VSS_CLP)  -11.0000       




    VOLTAGE SOURCE CURRENTS
    NAME         CURRENT

    V_V1        -1.218E-02
    V_V2        -1.218E-02
    V_V3         0.000E+00
    X_U2.VB      2.594E-12
    X_U2.VC      9.802E-12
    X_U2.VE      9.800E-12
    X_U2.VLIM   -4.141E-07
    X_U2.VLP    -3.000E-11
    X_U2.VLN    -3.000E-11
    X_U3.VB     -2.607E-12
    X_U3.VC      9.800E-12
    X_U3.VE      9.802E-12
    X_U3.VLIM    4.160E-07
    X_U3.VLP    -3.000E-11
    X_U3.VLN    -3.000E-11
    X_U4.VB     -2.252E-15
    X_U4.VC      9.801E-12
    X_U4.VE      9.801E-12
    X_U4.VLIM    3.703E-11
    X_U4.VLP    -3.000E-11
    X_U4.VLN    -3.000E-11
    X_U5.VB     -6.111E-15
    X_U5.VC      9.801E-12
    X_U5.VE      9.801E-12
    X_U5.VLIM    5.687E-11
    X_U5.VLP    -3.000E-11
    X_U5.VLN    -3.000E-11
    X_U1.X1.Vos  -1.549E-08
    X_U1.X1.XU6.VSENSE   4.567E-09

    TOTAL POWER DISSIPATION   2.92E-01  WATTS


**** 05/16/24 15:31:11 **** PSpice 23.1.0 (30 January 2024) *** ID# 0 ********

 ** Profile: "SCHEMATIC1-TEST"  [ e:\otros\electrónica\phonopreamp\simulations\phonopreamp3\phonopreamp3-pspicefiles\schematic1\test.


 ****     SMALL SIGNAL BIAS SOLUTION       TEMPERATURE =   27.000 DEG C

 ****     CURRENT STEP                     PARAM GAIN =     .4   


******************************************************************************



 NODE   VOLTAGE     NODE   VOLTAGE     NODE   VOLTAGE     NODE   VOLTAGE


(  VCC)   12.0000  (  VEE)  -12.0000  (N00420)    0.0000 (N00426)-934.5E-06     

(N01030)-826.6E-06 (N01098)-826.5E-06 (N01250) 1.899E-06 (N01384) 830.3E-06     

(N02071)-828.5E-06 (N02428)-804.8E-06 (N02631)-516.3E-06 (N03175)    0.0000     

(N03189) 737.5E-09 (N03193)-1.170E-06 (N03345) 737.5E-09 (N03931)-859.1E-09     

(N04450) 1.048E-06 (N04462) 2.015E-06 (N04549) 1.971E-06 (N06228) 1.995E-06     

(X_U2.6) 259.4E-09 (X_U2.7)-847.2E-06 (X_U2.8)-847.2E-06 (X_U2.9)    0.0000     

(X_U3.6)-260.7E-09 (X_U3.7) 851.1E-06 (X_U3.8) 851.1E-06 (X_U3.9)    0.0000     

(X_U4.6)-225.2E-12 (X_U4.7) 739.3E-09 (X_U4.8) 739.3E-09 (X_U4.9)    0.0000     

(X_U5.6)-614.5E-12 (X_U5.7) 2.018E-06 (X_U5.8) 2.018E-06 (X_U5.9)    0.0000     

(N006951)-828.5E-06                   (N009500)-826.6E-06                       

(N033921)-859.1E-09                   (N045841) 1.971E-06                       

(N047341) 1.971E-06                   (X_U2.10)    -.3759                       

(X_U2.11)  -11.6550                   (X_U2.12)  -11.6550                       

(X_U2.53)    9.8000                   (X_U2.54)   -9.8000                       

(X_U2.90)-414.1E-06                   (X_U2.91)   30.0000                       

(X_U2.92)  -30.0000                   (X_U2.99)    0.0000                       

(X_U3.10)    -.3750                   (X_U3.11)  -11.6550                       

(X_U3.12)  -11.6550                   (X_U3.53)    9.8000                       

(X_U3.54)   -9.8000                   (X_U3.90) 416.0E-06                       

(X_U3.91)   30.0000                   (X_U3.92)  -30.0000                       

(X_U3.99)    0.0000                   (X_U4.10)    -.3750                       

(X_U4.11)  -11.6550                   (X_U4.12)  -11.6550                       

(X_U4.53)    9.8000                   (X_U4.54)   -9.8000                       

(X_U4.90) 37.03E-09                   (X_U4.91)   30.0000                       

(X_U4.92)  -30.0000                   (X_U4.99)    0.0000                       

(X_U5.10)    -.3750                   (X_U5.11)  -11.6550                       

(X_U5.12)  -11.6550                   (X_U5.53)    9.8000                       

(X_U5.54)   -9.8000                   (X_U5.90) 56.98E-09                       

(X_U5.91)   30.0000                   (X_U5.92)  -30.0000                       

(X_U5.99)    0.0000                   (X_U1.X1.5)-804.5E-06                     

(X_U1.X1.6)-804.5E-06                 (X_U1.X1.8)-516.3E-06                     

(X_U1.X1.9)-516.3E-06                 (X_U1.X1.10)-516.3E-06                    

(X_U1.X1.14)-516.3E-06                (X_U1.X1.15)-804.5E-06                    

(X_U1.X1.16)-804.5E-06                (X_U1.X1.17)-934.5E-06                    

(X_U1.X1.18)-516.3E-06                (X_U1.X1.19)-804.5E-06                    

(X_U1.X1.20)-828.5E-06                (X_U1.X1.21)-934.5E-06                    

(X_U1.X1.GNDF)    0.0000              (X_U1.X1.Vimon) 4.549E-09                 

(X_U1.X1.XU3.3)    0.0000             (X_U1.X1.XU3.4)    0.0000                 

(X_U1.X1.XU3.5)    0.0000             (X_U1.X1.XU3.6)    0.0000                 

(X_U1.X1.XU3.7)     .8338             (X_U1.X1.XU3.8)     .8338                 

(X_U1.X1.XU4.3)    0.0000             (X_U1.X1.XU4.4)    0.0000                 

(X_U1.X1.XU4.5)    0.0000             (X_U1.X1.XU4.6)    0.0000                 

(X_U1.X1.XU4.7)     .8338             (X_U1.X1.XU4.8)     .8338                 

(X_U1.X1.XU7.1) 24.00E-06             (X_U1.X1.XU7.2)    0.0000                 

(X_U1.X1.XU8.1)-254.4E-12             (X_U1.X1.XU8.2)    0.0000                 

(X_U1.X1.NET126)   11.5980            (X_U1.X1.NET128)  -25.0980                

(X_U1.X1.XU11.VP1)-516.3E-06          (X_U1.X1.XU11.VP2)-516.3E-06              

(X_U1.X1.XU11.VP3)-516.3E-06          (X_U1.X1.XU11.VP4)-516.3E-06              

(X_U1.X1.XU11.VX1)    0.0000          (X_U1.X1.XU11.VX2)    0.0000              

(X_U1.X1.XU11.VX3)    0.0000          (X_U1.X1.XU11.VX4)    0.0000              

(X_U1.X1.XU11.VX5)    0.0000          (X_U1.X1.XU11.VZ1)-516.3E-06              

(X_U1.X1.XU11.VZ2)-516.3E-06          (X_U1.X1.XU11.VZ3)-516.3E-06              

(X_U1.X1.XU11.VZ4)-516.3E-06          (X_U1.X1.XU5.VDD_CLP)   11.0000           

(X_U1.X1.XU5.VSS_CLP)  -11.0000       




    VOLTAGE SOURCE CURRENTS
    NAME         CURRENT

    V_V1        -1.218E-02
    V_V2        -1.218E-02
    V_V3         0.000E+00
    X_U2.VB      2.594E-12
    X_U2.VC      9.802E-12
    X_U2.VE      9.800E-12
    X_U2.VLIM   -4.141E-07
    X_U2.VLP    -3.000E-11
    X_U2.VLN    -3.000E-11
    X_U3.VB     -2.607E-12
    X_U3.VC      9.800E-12
    X_U3.VE      9.802E-12
    X_U3.VLIM    4.160E-07
    X_U3.VLP    -3.000E-11
    X_U3.VLN    -3.000E-11
    X_U4.VB     -2.252E-15
    X_U4.VC      9.801E-12
    X_U4.VE      9.801E-12
    X_U4.VLIM    3.703E-11
    X_U4.VLP    -3.000E-11
    X_U4.VLN    -3.000E-11
    X_U5.VB     -6.145E-15
    X_U5.VC      9.801E-12
    X_U5.VE      9.801E-12
    X_U5.VLIM    5.698E-11
    X_U5.VLP    -3.000E-11
    X_U5.VLN    -3.000E-11
    X_U1.X1.Vos  -1.549E-08
    X_U1.X1.XU6.VSENSE   4.549E-09

    TOTAL POWER DISSIPATION   2.92E-01  WATTS


Starting pseudo-transient algorithm.

WARNING(ORPSIM-16534): Using high values of ITL4 for Speed Level > 0 may increase total simulation job time.

**** 05/16/24 15:31:11 **** PSpice 23.1.0 (30 January 2024) *** ID# 0 ********

 ** Profile: "SCHEMATIC1-TEST"  [ e:\otros\electrónica\phonopreamp\simulations\phonopreamp3\phonopreamp3-pspicefiles\schematic1\test.


 ****     SMALL SIGNAL BIAS SOLUTION       TEMPERATURE =   27.000 DEG C

 ****     CURRENT STEP                     PARAM GAIN =     .5   


******************************************************************************



 NODE   VOLTAGE     NODE   VOLTAGE     NODE   VOLTAGE     NODE   VOLTAGE


(  VCC)   12.0000  (  VEE)  -12.0000  (N00420)    0.0000 (N00426)-891.4E-06     

(N01030)-783.5E-06 (N01098)    -.0012 (N01250) 1.895E-06 (N01384)     .0012     

(N02071)-785.4E-06 (N02428)    -.0013 (N02631)    -.0074 (N03175) 437.6E-06     

(N03189)-13.59E-06 (N03193) 2.863E-06 (N03345) 4.770E-06 (N03931)-612.5E-09     

(N04450) 1.295E-06 (N04462) 2.633E-06 (N04549) 2.217E-06 (N06228) 2.607E-06     

(X_U2.6) 379.6E-09 (X_U2.7)    -.0012 (X_U2.8)    -.0012 (X_U2.9)    0.0000     

(X_U3.6)-378.9E-09 (X_U3.7)     .0012 (X_U3.8)     .0012 (X_U3.9)    0.0000     

(X_U4.6)-1.514E-09 (X_U4.7) 4.936E-06 (X_U4.8) 4.936E-06 (X_U4.9)    0.0000     

(X_U5.6)-807.4E-12 (X_U5.7) 2.648E-06 (X_U5.8) 2.648E-06 (X_U5.9)    0.0000     

(N006951)-763.4E-06                   (N009500)-761.5E-06                       

(N033921)-600.0E-09                   (N045841) 1.857E-06                       

(N047341) 1.616E-06                   (X_U2.10)    -.3758                       

(X_U2.11)  -11.6550                   (X_U2.12)  -11.6550                       

(X_U2.53)    9.8000                   (X_U2.54)   -9.8000                       

(X_U2.90)-702.0E-06                   (X_U2.91)   30.0000                       

(X_U2.92)  -30.0000                   (X_U2.99)    0.0000                       

(X_U3.10)    -.3750                   (X_U3.11)  -11.6550                       

(X_U3.12)  -11.6550                   (X_U3.53)    9.8000                       

(X_U3.54)   -9.8000                   (X_U3.90) 604.7E-06                       

(X_U3.91)   30.0000                   (X_U3.92)  -30.0000                       

(X_U3.99)    0.0000                   (X_U4.10)    -.3750                       

(X_U4.11)  -11.6550                   (X_U4.12)  -11.6550                       

(X_U4.53)    9.8000                   (X_U4.54)   -9.8000                       

(X_U4.90) 3.315E-06                   (X_U4.91)   30.0000                       

(X_U4.92)  -30.0000                   (X_U4.99)    0.0000                       

(X_U5.10)    -.3750                   (X_U5.11)  -11.6550                       

(X_U5.12)  -11.6550                   (X_U5.53)    9.8000                       

(X_U5.54)   -9.8000                   (X_U5.90) 303.3E-09                       

(X_U5.91)   30.0000                   (X_U5.92)  -30.0000                       

(X_U5.99)    0.0000                   (X_U1.X1.5)-761.4E-06                     

(X_U1.X1.6)-761.4E-06                 (X_U1.X1.8)    -.0074                     

(X_U1.X1.9)    -.0074                 (X_U1.X1.10)    -.0074                    

(X_U1.X1.14)    -.0074                (X_U1.X1.15)-761.4E-06                    

(X_U1.X1.16)-761.4E-06                (X_U1.X1.17)-891.4E-06                    

(X_U1.X1.18)    -.0074                (X_U1.X1.19)-761.4E-06                    

(X_U1.X1.20)-785.4E-06                (X_U1.X1.21)-891.4E-06                    

(X_U1.X1.GNDF)    0.0000              (X_U1.X1.Vimon)-43.78E-09                 

(X_U1.X1.XU3.3)    0.0000             (X_U1.X1.XU3.4)    0.0000                 

(X_U1.X1.XU3.5)    0.0000             (X_U1.X1.XU3.6)    0.0000                 

(X_U1.X1.XU3.7)     .8338             (X_U1.X1.XU3.8)     .8338                 

(X_U1.X1.XU4.3)    0.0000             (X_U1.X1.XU4.4)    0.0000                 

(X_U1.X1.XU4.5)    0.0000             (X_U1.X1.XU4.6)    0.0000                 

(X_U1.X1.XU4.7)     .8338             (X_U1.X1.XU4.8)     .8338                 

(X_U1.X1.XU7.1) 24.00E-06             (X_U1.X1.XU7.2) 1.193E-18                 

(X_U1.X1.XU8.1)-240.8E-12             (X_U1.X1.XU8.2)-15.07E-15                 

(X_U1.X1.NET126)   25.1570            (X_U1.X1.NET128)  -11.5390                

(X_U1.X1.XU11.VP1)    -.0074          (X_U1.X1.XU11.VP2)    -.0074              

(X_U1.X1.XU11.VP3)    -.0074          (X_U1.X1.XU11.VP4)    -.0074              

(X_U1.X1.XU11.VX1) 765.9E-15          (X_U1.X1.XU11.VX2) 765.9E-15              

(X_U1.X1.XU11.VX3) 765.9E-15          (X_U1.X1.XU11.VX4) 765.9E-15              

(X_U1.X1.XU11.VX5) 765.9E-15          (X_U1.X1.XU11.VZ1)    -.0074              

(X_U1.X1.XU11.VZ2)    -.0074          (X_U1.X1.XU11.VZ3)    -.0074              

(X_U1.X1.XU11.VZ4)    -.0074          (X_U1.X1.XU5.VDD_CLP)   11.0000           

(X_U1.X1.XU5.VSS_CLP)  -11.0000       




    VOLTAGE SOURCE CURRENTS
    NAME         CURRENT

    V_V1        -1.218E-02
    V_V2        -1.218E-02
    V_V3        -2.995E-10
    X_U2.VB      3.796E-12
    X_U2.VC      9.802E-12
    X_U2.VE      9.800E-12
    X_U2.VLIM   -7.020E-07
    X_U2.VLP    -3.000E-11
    X_U2.VLN    -3.000E-11
    X_U3.VB     -3.789E-12
    X_U3.VC      9.800E-12
    X_U3.VE      9.802E-12
    X_U3.VLIM    6.047E-07
    X_U3.VLP    -3.000E-11
    X_U3.VLN    -3.000E-11
    X_U4.VB     -1.515E-14
    X_U4.VC      9.801E-12
    X_U4.VE      9.801E-12
    X_U4.VLIM    3.315E-09
    X_U4.VLP    -3.000E-11
    X_U4.VLN    -3.000E-11
    X_U5.VB     -8.072E-15
    X_U5.VC      9.801E-12
    X_U5.VE      9.801E-12
    X_U5.VLIM    3.033E-10
    X_U5.VLP    -3.000E-11
    X_U5.VLN    -3.000E-11
    X_U1.X1.Vos  -1.549E-08
    X_U1.X1.XU6.VSENSE  -4.378E-08

    TOTAL POWER DISSIPATION   2.92E-01  WATTS


**** 05/16/24 15:31:11 **** PSpice 23.1.0 (30 January 2024) *** ID# 0 ********

 ** Profile: "SCHEMATIC1-TEST"  [ e:\otros\electrónica\phonopreamp\simulations\phonopreamp3\phonopreamp3-pspicefiles\schematic1\test.


 ****     SMALL SIGNAL BIAS SOLUTION       TEMPERATURE =   27.000 DEG C

 ****     CURRENT STEP                     PARAM GAIN =     .6   


******************************************************************************



 NODE   VOLTAGE     NODE   VOLTAGE     NODE   VOLTAGE     NODE   VOLTAGE


(  VCC)   12.0000  (  VEE)  -12.0000  (N00420)    0.0000 (N00426)-934.6E-06     

(N01030)-826.5E-06 (N01098)-826.3E-06 (N01250) 1.899E-06 (N01384) 830.2E-06     

(N02071)-828.4E-06 (N02428)-804.6E-06 (N02631)-516.2E-06 (N03175)    0.0000     

(N03189) 737.5E-09 (N03193)-1.170E-06 (N03345) 737.5E-09 (N03931)-859.1E-09     

(N04450) 1.048E-06 (N04462) 2.037E-06 (N04549) 1.971E-06 (N06228) 2.017E-06     

(X_U2.6) 259.4E-09 (X_U2.7)-847.0E-06 (X_U2.8)-847.0E-06 (X_U2.9)    0.0000     

(X_U3.6)-260.6E-09 (X_U3.7) 851.0E-06 (X_U3.8) 851.0E-06 (X_U3.9)    0.0000     

(X_U4.6)-225.2E-12 (X_U4.7) 739.3E-09 (X_U4.8) 739.3E-09 (X_U4.9)    0.0000     

(X_U5.6)-621.2E-12 (X_U5.7) 2.040E-06 (X_U5.8) 2.040E-06 (X_U5.9)    0.0000     

(N006951)-828.4E-06                   (N009500)-826.5E-06                       

(N033921)-859.1E-09                   (N045841) 1.971E-06                       

(N047341) 1.971E-06                   (X_U2.10)    -.3759                       

(X_U2.11)  -11.6550                   (X_U2.12)  -11.6550                       

(X_U2.53)    9.8000                   (X_U2.54)   -9.8000                       

(X_U2.90)-414.1E-06                   (X_U2.91)   30.0000                       

(X_U2.92)  -30.0000                   (X_U2.99)    0.0000                       

(X_U3.10)    -.3750                   (X_U3.11)  -11.6550                       

(X_U3.12)  -11.6550                   (X_U3.53)    9.8000                       

(X_U3.54)   -9.8000                   (X_U3.90) 415.9E-06                       

(X_U3.91)   30.0000                   (X_U3.92)  -30.0000                       

(X_U3.99)    0.0000                   (X_U4.10)    -.3750                       

(X_U4.11)  -11.6550                   (X_U4.12)  -11.6550                       

(X_U4.53)    9.8000                   (X_U4.54)   -9.8000                       

(X_U4.90) 37.03E-09                   (X_U4.91)   30.0000                       

(X_U4.92)  -30.0000                   (X_U4.99)    0.0000                       

(X_U5.10)    -.3750                   (X_U5.11)  -11.6550                       

(X_U5.12)  -11.6550                   (X_U5.53)    9.8000                       

(X_U5.54)   -9.8000                   (X_U5.90) 57.20E-09                       

(X_U5.91)   30.0000                   (X_U5.92)  -30.0000                       

(X_U5.99)    0.0000                   (X_U1.X1.5)-804.4E-06                     

(X_U1.X1.6)-804.6E-06                 (X_U1.X1.8)   -1.2954                     

(X_U1.X1.9)   -1.2954                 (X_U1.X1.10)   -1.2954                    

(X_U1.X1.14)   -1.2954                (X_U1.X1.15)-804.6E-06                    

(X_U1.X1.16)-804.4E-06                (X_U1.X1.17)-934.6E-06                    

(X_U1.X1.18)   -1.2954                (X_U1.X1.19)-804.4E-06                    

(X_U1.X1.20)-828.4E-06                (X_U1.X1.21)-934.6E-06                    

(X_U1.X1.GNDF)    0.0000              (X_U1.X1.Vimon) 4.549E-09                 

(X_U1.X1.XU3.3)    0.0000             (X_U1.X1.XU3.4)    0.0000                 

(X_U1.X1.XU3.5)    0.0000             (X_U1.X1.XU3.6)    0.0000                 

(X_U1.X1.XU3.7)     .8338             (X_U1.X1.XU3.8)     .8338                 

(X_U1.X1.XU4.3)    0.0000             (X_U1.X1.XU4.4)    0.0000                 

(X_U1.X1.XU4.5)    0.0000             (X_U1.X1.XU4.6)    0.0000                 

(X_U1.X1.XU4.7)     .8338             (X_U1.X1.XU4.8)     .8338                 

(X_U1.X1.XU7.1) 24.00E-06             (X_U1.X1.XU7.2)    0.0000                 

(X_U1.X1.XU8.1)-254.4E-12             (X_U1.X1.XU8.2)    0.0000                 

(X_U1.X1.NET126)   11.5980            (X_U1.X1.NET128)  -25.0980                

(X_U1.X1.XU11.VP1)   -1.2954          (X_U1.X1.XU11.VP2)   -1.2954              

(X_U1.X1.XU11.VP3)   -1.2954          (X_U1.X1.XU11.VP4)   -1.2954              

(X_U1.X1.XU11.VX1)    0.0000          (X_U1.X1.XU11.VX2)    0.0000              

(X_U1.X1.XU11.VX3)    0.0000          (X_U1.X1.XU11.VX4)    0.0000              

(X_U1.X1.XU11.VX5)    0.0000          (X_U1.X1.XU11.VZ1)   -1.2954              

(X_U1.X1.XU11.VZ2)   -1.2954          (X_U1.X1.XU11.VZ3)   -1.2954              

(X_U1.X1.XU11.VZ4)   -1.2954          (X_U1.X1.XU5.VDD_CLP)   11.0000           

(X_U1.X1.XU5.VSS_CLP)  -11.0000       




    VOLTAGE SOURCE CURRENTS
    NAME         CURRENT

    V_V1        -1.218E-02
    V_V2        -1.218E-02
    V_V3         0.000E+00
    X_U2.VB      2.594E-12
    X_U2.VC      9.802E-12
    X_U2.VE      9.800E-12
    X_U2.VLIM   -4.141E-07
    X_U2.VLP    -3.000E-11
    X_U2.VLN    -3.000E-11
    X_U3.VB     -2.606E-12
    X_U3.VC      9.800E-12
    X_U3.VE      9.802E-12
    X_U3.VLIM    4.159E-07
    X_U3.VLP    -3.000E-11
    X_U3.VLN    -3.000E-11
    X_U4.VB     -2.252E-15
    X_U4.VC      9.801E-12
    X_U4.VE      9.801E-12
    X_U4.VLIM    3.703E-11
    X_U4.VLP    -3.000E-11
    X_U4.VLN    -3.000E-11
    X_U5.VB     -6.212E-15
    X_U5.VC      9.801E-12
    X_U5.VE      9.801E-12
    X_U5.VLIM    5.720E-11
    X_U5.VLP    -3.000E-11
    X_U5.VLN    -3.000E-11
    X_U1.X1.Vos  -1.549E-08
    X_U1.X1.XU6.VSENSE   4.549E-09

    TOTAL POWER DISSIPATION   2.92E-01  WATTS


**** 05/16/24 15:31:11 **** PSpice 23.1.0 (30 January 2024) *** ID# 0 ********

 ** Profile: "SCHEMATIC1-TEST"  [ e:\otros\electrónica\phonopreamp\simulations\phonopreamp3\phonopreamp3-pspicefiles\schematic1\test.


 ****     SMALL SIGNAL BIAS SOLUTION       TEMPERATURE =   27.000 DEG C

 ****     CURRENT STEP                     PARAM GAIN =     .7   


******************************************************************************



 NODE   VOLTAGE     NODE   VOLTAGE     NODE   VOLTAGE     NODE   VOLTAGE


(  VCC)   12.0000  (  VEE)  -12.0000  (N00420)    0.0000 (N00426)-934.5E-06     

(N01030)-826.6E-06 (N01098)-826.5E-06 (N01250) 1.899E-06 (N01384) 830.3E-06     

(N02071)-828.5E-06 (N02428)-804.8E-06 (N02631)-516.3E-06 (N03175)    0.0000     

(N03189) 737.5E-09 (N03193)-1.170E-06 (N03345) 737.5E-09 (N03931)-859.1E-09     

(N04450) 1.048E-06 (N04462) 2.048E-06 (N04549) 1.971E-06 (N06228) 2.028E-06     

(X_U2.6) 259.4E-09 (X_U2.7)-847.2E-06 (X_U2.8)-847.2E-06 (X_U2.9)    0.0000     

(X_U3.6)-260.7E-09 (X_U3.7) 851.1E-06 (X_U3.8) 851.1E-06 (X_U3.9)    0.0000     

(X_U4.6)-225.2E-12 (X_U4.7) 739.3E-09 (X_U4.8) 739.3E-09 (X_U4.9)    0.0000     

(X_U5.6)-624.6E-12 (X_U5.7) 2.051E-06 (X_U5.8) 2.051E-06 (X_U5.9)    0.0000     

(N006951)-828.5E-06                   (N009500)-826.6E-06                       

(N033921)-859.1E-09                   (N045841) 1.971E-06                       

(N047341) 1.971E-06                   (X_U2.10)    -.3759                       

(X_U2.11)  -11.6550                   (X_U2.12)  -11.6550                       

(X_U2.53)    9.8000                   (X_U2.54)   -9.8000                       

(X_U2.90)-414.1E-06                   (X_U2.91)   30.0000                       

(X_U2.92)  -30.0000                   (X_U2.99)    0.0000                       

(X_U3.10)    -.3750                   (X_U3.11)  -11.6550                       

(X_U3.12)  -11.6550                   (X_U3.53)    9.8000                       

(X_U3.54)   -9.8000                   (X_U3.90) 416.0E-06                       

(X_U3.91)   30.0000                   (X_U3.92)  -30.0000                       

(X_U3.99)    0.0000                   (X_U4.10)    -.3750                       

(X_U4.11)  -11.6550                   (X_U4.12)  -11.6550                       

(X_U4.53)    9.8000                   (X_U4.54)   -9.8000                       

(X_U4.90) 37.03E-09                   (X_U4.91)   30.0000                       

(X_U4.92)  -30.0000                   (X_U4.99)    0.0000                       

(X_U5.10)    -.3750                   (X_U5.11)  -11.6550                       

(X_U5.12)  -11.6550                   (X_U5.53)    9.8000                       

(X_U5.54)   -9.8000                   (X_U5.90) 57.31E-09                       

(X_U5.91)   30.0000                   (X_U5.92)  -30.0000                       

(X_U5.99)    0.0000                   (X_U1.X1.5)-804.5E-06                     

(X_U1.X1.6)-804.5E-06                 (X_U1.X1.8)-516.3E-06                     

(X_U1.X1.9)-516.3E-06                 (X_U1.X1.10)-516.3E-06                    

(X_U1.X1.14)-516.3E-06                (X_U1.X1.15)-804.5E-06                    

(X_U1.X1.16)-804.5E-06                (X_U1.X1.17)-934.5E-06                    

(X_U1.X1.18)-516.3E-06                (X_U1.X1.19)-804.5E-06                    

(X_U1.X1.20)-828.5E-06                (X_U1.X1.21)-934.5E-06                    

(X_U1.X1.GNDF)    0.0000              (X_U1.X1.Vimon) 4.549E-09                 

(X_U1.X1.XU3.3)    0.0000             (X_U1.X1.XU3.4)    0.0000                 

(X_U1.X1.XU3.5)    0.0000             (X_U1.X1.XU3.6)    0.0000                 

(X_U1.X1.XU3.7)     .8338             (X_U1.X1.XU3.8)     .8338                 

(X_U1.X1.XU4.3)    0.0000             (X_U1.X1.XU4.4)    0.0000                 

(X_U1.X1.XU4.5)    0.0000             (X_U1.X1.XU4.6)    0.0000                 

(X_U1.X1.XU4.7)     .8338             (X_U1.X1.XU4.8)     .8338                 

(X_U1.X1.XU7.1) 24.00E-06             (X_U1.X1.XU7.2)    0.0000                 

(X_U1.X1.XU8.1)-254.4E-12             (X_U1.X1.XU8.2)    0.0000                 

(X_U1.X1.NET126)   11.5980            (X_U1.X1.NET128)  -25.0980                

(X_U1.X1.XU11.VP1)-516.3E-06          (X_U1.X1.XU11.VP2)-516.3E-06              

(X_U1.X1.XU11.VP3)-516.3E-06          (X_U1.X1.XU11.VP4)-516.3E-06              

(X_U1.X1.XU11.VX1) 217.5E-18          (X_U1.X1.XU11.VX2)    0.0000              

(X_U1.X1.XU11.VX3)    0.0000          (X_U1.X1.XU11.VX4)    0.0000              

(X_U1.X1.XU11.VX5)    0.0000          (X_U1.X1.XU11.VZ1)-516.3E-06              

(X_U1.X1.XU11.VZ2)-516.3E-06          (X_U1.X1.XU11.VZ3)-516.3E-06              

(X_U1.X1.XU11.VZ4)-516.3E-06          (X_U1.X1.XU5.VDD_CLP)   11.0000           

(X_U1.X1.XU5.VSS_CLP)  -11.0000       




    VOLTAGE SOURCE CURRENTS
    NAME         CURRENT

    V_V1        -1.218E-02
    V_V2        -1.218E-02
    V_V3         0.000E+00
    X_U2.VB      2.594E-12
    X_U2.VC      9.802E-12
    X_U2.VE      9.800E-12
    X_U2.VLIM   -4.141E-07
    X_U2.VLP    -3.000E-11
    X_U2.VLN    -3.000E-11
    X_U3.VB     -2.607E-12
    X_U3.VC      9.800E-12
    X_U3.VE      9.802E-12
    X_U3.VLIM    4.160E-07
    X_U3.VLP    -3.000E-11
    X_U3.VLN    -3.000E-11
    X_U4.VB     -2.252E-15
    X_U4.VC      9.801E-12
    X_U4.VE      9.801E-12
    X_U4.VLIM    3.703E-11
    X_U4.VLP    -3.000E-11
    X_U4.VLN    -3.000E-11
    X_U5.VB     -6.246E-15
    X_U5.VC      9.801E-12
    X_U5.VE      9.801E-12
    X_U5.VLIM    5.731E-11
    X_U5.VLP    -3.000E-11
    X_U5.VLN    -3.000E-11
    X_U1.X1.Vos  -1.549E-08
    X_U1.X1.XU6.VSENSE   4.549E-09

    TOTAL POWER DISSIPATION   2.92E-01  WATTS


**** 05/16/24 15:31:11 **** PSpice 23.1.0 (30 January 2024) *** ID# 0 ********

 ** Profile: "SCHEMATIC1-TEST"  [ e:\otros\electrónica\phonopreamp\simulations\phonopreamp3\phonopreamp3-pspicefiles\schematic1\test.


 ****     SMALL SIGNAL BIAS SOLUTION       TEMPERATURE =   27.000 DEG C

 ****     CURRENT STEP                     PARAM GAIN =     .8   


******************************************************************************



 NODE   VOLTAGE     NODE   VOLTAGE     NODE   VOLTAGE     NODE   VOLTAGE


(  VCC)   12.0000  (  VEE)  -12.0000  (N00420)    0.0000 (N00426)-934.6E-06     

(N01030)-826.4E-06 (N01098)-826.2E-06 (N01250) 1.899E-06 (N01384) 830.1E-06     

(N02071)-828.3E-06 (N02428)     .3308 (N02631)    4.3510 (N03175)    0.0000     

(N03189) 737.5E-09 (N03193)-1.170E-06 (N03345) 737.5E-09 (N03931)-859.1E-09     

(N04450) 1.048E-06 (N04462) 2.059E-06 (N04549) 1.971E-06 (N06228) 2.039E-06     

(X_U2.6) 259.4E-09 (X_U2.7)-846.9E-06 (X_U2.8)-846.9E-06 (X_U2.9)    0.0000     

(X_U3.6)-260.6E-09 (X_U3.7) 850.9E-06 (X_U3.8) 850.9E-06 (X_U3.9)    0.0000     

(X_U4.6)-225.1E-12 (X_U4.7) 739.3E-09 (X_U4.8) 739.3E-09 (X_U4.9)    0.0000     

(X_U5.6)-628.0E-12 (X_U5.7) 2.062E-06 (X_U5.8) 2.062E-06 (X_U5.9)    0.0000     

(N006951)-828.3E-06                   (N009500)-826.4E-06                       

(N033921)-859.1E-09                   (N045841) 1.971E-06                       

(N047341) 1.971E-06                   (X_U2.10)    -.3759                       

(X_U2.11)  -11.6550                   (X_U2.12)  -11.6550                       

(X_U2.53)    9.8000                   (X_U2.54)   -9.8000                       

(X_U2.90)-414.0E-06                   (X_U2.91)   30.0000                       

(X_U2.92)  -30.0000                   (X_U2.99)    0.0000                       

(X_U3.10)    -.3750                   (X_U3.11)  -11.6550                       

(X_U3.12)  -11.6550                   (X_U3.53)    9.8000                       

(X_U3.54)   -9.8000                   (X_U3.90) 415.9E-06                       

(X_U3.91)   30.0000                   (X_U3.92)  -30.0000                       

(X_U3.99)    0.0000                   (X_U4.10)    -.3750                       

(X_U4.11)  -11.6550                   (X_U4.12)  -11.6550                       

(X_U4.53)    9.8000                   (X_U4.54)   -9.8000                       

(X_U4.90) 37.03E-09                   (X_U4.91)   30.0000                       

(X_U4.92)  -30.0000                   (X_U4.99)    0.0000                       

(X_U5.10)    -.3750                   (X_U5.11)  -11.6550                       

(X_U5.12)  -11.6550                   (X_U5.53)    9.8000                       

(X_U5.54)   -9.8000                   (X_U5.90) 57.42E-09                       

(X_U5.91)   30.0000                   (X_U5.92)  -30.0000                       

(X_U5.99)    0.0000                   (X_U1.X1.5)-804.9E-06                     

(X_U1.X1.6)-804.6E-06                 (X_U1.X1.8)    3.3814                     

(X_U1.X1.9)    3.3822                 (X_U1.X1.10)    3.3822                    

(X_U1.X1.14)    3.3822                (X_U1.X1.15)-804.6E-06                    

(X_U1.X1.16)-804.9E-06                (X_U1.X1.17)-934.6E-06                    

(X_U1.X1.18)    3.3814                (X_U1.X1.19)-804.9E-06                    

(X_U1.X1.20)-828.3E-06                (X_U1.X1.21)-934.6E-06                    

(X_U1.X1.GNDF)    0.0000              (X_U1.X1.Vimon) 63.41E-06                 

(X_U1.X1.XU3.3)    0.0000             (X_U1.X1.XU3.4)    0.0000                 

(X_U1.X1.XU3.5)    0.0000             (X_U1.X1.XU3.6)    0.0000                 

(X_U1.X1.XU3.7)     .8338             (X_U1.X1.XU3.8)     .8338                 

(X_U1.X1.XU4.3)    0.0000             (X_U1.X1.XU4.4)    0.0000                 

(X_U1.X1.XU4.5)    0.0000             (X_U1.X1.XU4.6)    0.0000                 

(X_U1.X1.XU4.7)     .8338             (X_U1.X1.XU4.8)     .8338                 

(X_U1.X1.XU7.1) 24.00E-06             (X_U1.X1.XU7.2)    0.0000                 

(X_U1.X1.XU8.1)-254.5E-12             (X_U1.X1.XU8.2)    0.0000                 

(X_U1.X1.NET126)   11.3510            (X_U1.X1.NET128)  -25.3460                

(X_U1.X1.XU11.VP1)    3.3822          (X_U1.X1.XU11.VP2)    3.3822              

(X_U1.X1.XU11.VP3)    3.3822          (X_U1.X1.XU11.VP4)    3.3822              

(X_U1.X1.XU11.VX1)    0.0000          (X_U1.X1.XU11.VX2)    0.0000              

(X_U1.X1.XU11.VX3)-444.1E-18          (X_U1.X1.XU11.VX4)    0.0000              

(X_U1.X1.XU11.VX5) 444.1E-18          (X_U1.X1.XU11.VZ1)    3.3822              

(X_U1.X1.XU11.VZ2)    3.3822          (X_U1.X1.XU11.VZ3)    3.3822              

(X_U1.X1.XU11.VZ4)    3.3822          (X_U1.X1.XU5.VDD_CLP)   11.0000           

(X_U1.X1.XU5.VSS_CLP)  -11.0000       




    VOLTAGE SOURCE CURRENTS
    NAME         CURRENT

    V_V1        -1.224E-02
    V_V2        -1.218E-02
    V_V3         0.000E+00
    X_U2.VB      2.594E-12
    X_U2.VC      9.802E-12
    X_U2.VE      9.800E-12
    X_U2.VLIM   -4.140E-07
    X_U2.VLP    -3.000E-11
    X_U2.VLN    -3.000E-11
    X_U3.VB     -2.606E-12
    X_U3.VC      9.800E-12
    X_U3.VE      9.802E-12
    X_U3.VLIM    4.159E-07
    X_U3.VLP    -3.000E-11
    X_U3.VLN    -3.000E-11
    X_U4.VB     -2.252E-15
    X_U4.VC      9.801E-12
    X_U4.VE      9.801E-12
    X_U4.VLIM    3.703E-11
    X_U4.VLP    -3.000E-11
    X_U4.VLN    -3.000E-11
    X_U5.VB     -6.280E-15
    X_U5.VC      9.801E-12
    X_U5.VE      9.801E-12
    X_U5.VLIM    5.742E-11
    X_U5.VLP    -3.000E-11
    X_U5.VLN    -3.000E-11
    X_U1.X1.Vos  -1.549E-08
    X_U1.X1.XU6.VSENSE   6.341E-05

    TOTAL POWER DISSIPATION   2.93E-01  WATTS


Starting pseudo-transient algorithm.

**** 05/16/24 15:31:11 **** PSpice 23.1.0 (30 January 2024) *** ID# 0 ********

 ** Profile: "SCHEMATIC1-TEST"  [ e:\otros\electrónica\phonopreamp\simulations\phonopreamp3\phonopreamp3-pspicefiles\schematic1\test.


 ****     SMALL SIGNAL BIAS SOLUTION       TEMPERATURE =   27.000 DEG C

 ****     CURRENT STEP                     PARAM GAIN =     .9   


******************************************************************************



 NODE   VOLTAGE     NODE   VOLTAGE     NODE   VOLTAGE     NODE   VOLTAGE


(  VCC)   12.0000  (  VEE)  -12.0000  (N00420)    0.0000 (N00426)-891.4E-06     

(N01030)-783.5E-06 (N01098)    -.0012 (N01250) 1.825E-06 (N01384)     .0012     

(N02071)-785.4E-06 (N02428)    -.0013 (N02631)    -.0074 (N03175) 437.8E-06     

(N03189)-13.60E-06 (N03193) 2.865E-06 (N03345) 4.772E-06 (N03931)-612.7E-09     

(N04450) 1.295E-06 (N04462) 863.8E-09 (N04549) 2.217E-06 (N06228) 855.3E-09     

(X_U2.6) 379.6E-09 (X_U2.7)    -.0012 (X_U2.8)    -.0012 (X_U2.9)    0.0000     

(X_U3.6)-378.9E-09 (X_U3.7)     .0012 (X_U3.8)     .0012 (X_U3.9)    0.0000     

(X_U4.6)-1.515E-09 (X_U4.7) 4.938E-06 (X_U4.8) 4.938E-06 (X_U4.9)    0.0000     

(X_U5.6)-253.6E-12 (X_U5.7) 839.2E-09 (X_U5.8) 839.2E-09 (X_U5.9)    0.0000     

(N006951)-763.4E-06                   (N009500)-761.5E-06                       

(N033921)-600.2E-09                   (N045841) 2.378E-06                       

(N047341) 2.916E-06                   (X_U2.10)    -.3758                       

(X_U2.11)  -11.6550                   (X_U2.12)  -11.6550                       

(X_U2.53)    9.8000                   (X_U2.54)   -9.8000                       

(X_U2.90)-702.1E-06                   (X_U2.91)   30.0000                       

(X_U2.92)  -30.0000                   (X_U2.99)    0.0000                       

(X_U3.10)    -.3750                   (X_U3.11)  -11.6550                       

(X_U3.12)  -11.6550                   (X_U3.53)    9.8000                       

(X_U3.54)   -9.8000                   (X_U3.90) 604.7E-06                       

(X_U3.91)   30.0000                   (X_U3.92)  -30.0000                       

(X_U3.99)    0.0000                   (X_U4.10)    -.3750                       

(X_U4.11)  -11.6550                   (X_U4.12)  -11.6550                       

(X_U4.53)    9.8000                   (X_U4.54)   -9.8000                       

(X_U4.90) 3.317E-06                   (X_U4.91)   30.0000                       

(X_U4.92)  -30.0000                   (X_U4.99)    0.0000                       

(X_U5.10)    -.3750                   (X_U5.11)  -11.6550                       

(X_U5.12)  -11.6550                   (X_U5.53)    9.8000                       

(X_U5.54)   -9.8000                   (X_U5.90)-492.6E-09                       

(X_U5.91)   30.0000                   (X_U5.92)  -30.0000                       

(X_U5.99)    0.0000                   (X_U1.X1.5)-761.4E-06                     

(X_U1.X1.6)-761.4E-06                 (X_U1.X1.8)    -.0074                     

(X_U1.X1.9)    -.0074                 (X_U1.X1.10)    -.0074                    

(X_U1.X1.14)    -.0074                (X_U1.X1.15)-761.4E-06                    

(X_U1.X1.16)-761.4E-06                (X_U1.X1.17)-891.4E-06                    

(X_U1.X1.18)    -.0074                (X_U1.X1.19)-761.4E-06                    

(X_U1.X1.20)-785.4E-06                (X_U1.X1.21)-891.4E-06                    

(X_U1.X1.GNDF)    0.0000              (X_U1.X1.Vimon)-43.79E-09                 

(X_U1.X1.XU3.3)    0.0000             (X_U1.X1.XU3.4)    0.0000                 

(X_U1.X1.XU3.5)    0.0000             (X_U1.X1.XU3.6)    0.0000                 

(X_U1.X1.XU3.7)     .8338             (X_U1.X1.XU3.8)     .8338                 

(X_U1.X1.XU4.3)    0.0000             (X_U1.X1.XU4.4)    0.0000                 

(X_U1.X1.XU4.5)    0.0000             (X_U1.X1.XU4.6)    0.0000                 

(X_U1.X1.XU4.7)     .8338             (X_U1.X1.XU4.8)     .8338                 

(X_U1.X1.XU7.1) 24.00E-06             (X_U1.X1.XU7.2) 162.6E-21                 

(X_U1.X1.XU8.1)-240.8E-12             (X_U1.X1.XU8.2)-15.09E-15                 

(X_U1.X1.NET126)   25.1570            (X_U1.X1.NET128)  -11.5390                

(X_U1.X1.XU11.VP1)    -.0074          (X_U1.X1.XU11.VP2)    -.0074              

(X_U1.X1.XU11.VP3)    -.0074          (X_U1.X1.XU11.VP4)    -.0074              

(X_U1.X1.XU11.VX1) 766.1E-15          (X_U1.X1.XU11.VX2) 766.1E-15              

(X_U1.X1.XU11.VX3) 766.1E-15          (X_U1.X1.XU11.VX4) 766.1E-15              

(X_U1.X1.XU11.VX5) 766.1E-15          (X_U1.X1.XU11.VZ1)    -.0074              

(X_U1.X1.XU11.VZ2)    -.0074          (X_U1.X1.XU11.VZ3)    -.0074              

(X_U1.X1.XU11.VZ4)    -.0074          (X_U1.X1.XU5.VDD_CLP)   11.0000           

(X_U1.X1.XU5.VSS_CLP)  -11.0000       




    VOLTAGE SOURCE CURRENTS
    NAME         CURRENT

    V_V1        -1.218E-02
    V_V2        -1.218E-02
    V_V3        -2.997E-10
    X_U2.VB      3.796E-12
    X_U2.VC      9.802E-12
    X_U2.VE      9.800E-12
    X_U2.VLIM   -7.021E-07
    X_U2.VLP    -3.000E-11
    X_U2.VLN    -3.000E-11
    X_U3.VB     -3.789E-12
    X_U3.VC      9.800E-12
    X_U3.VE      9.802E-12
    X_U3.VLIM    6.047E-07
    X_U3.VLP    -3.000E-11
    X_U3.VLN    -3.000E-11
    X_U4.VB     -1.516E-14
    X_U4.VC      9.801E-12
    X_U4.VE      9.801E-12
    X_U4.VLIM    3.317E-09
    X_U4.VLP    -3.000E-11
    X_U4.VLN    -3.000E-11
    X_U5.VB     -2.536E-15
    X_U5.VC      9.801E-12
    X_U5.VE      9.801E-12
    X_U5.VLIM   -4.926E-10
    X_U5.VLP    -3.000E-11
    X_U5.VLN    -3.000E-11
    X_U1.X1.Vos  -1.549E-08
    X_U1.X1.XU6.VSENSE  -4.379E-08

    TOTAL POWER DISSIPATION   2.92E-01  WATTS


**** 05/16/24 15:31:11 **** PSpice 23.1.0 (30 January 2024) *** ID# 0 ********

 ** Profile: "SCHEMATIC1-TEST"  [ e:\otros\electrónica\phonopreamp\simulations\phonopreamp3\phonopreamp3-pspicefiles\schematic1\test.


 ****     SMALL SIGNAL BIAS SOLUTION       TEMPERATURE =   27.000 DEG C

 ****     CURRENT STEP                     PARAM GAIN =    1     


******************************************************************************



 NODE   VOLTAGE     NODE   VOLTAGE     NODE   VOLTAGE     NODE   VOLTAGE


(  VCC)   12.0000  (  VEE)  -12.0000  (N00420)    0.0000 (N00426)-934.5E-06     

(N01030)-826.6E-06 (N01098)-826.5E-06 (N01250) 1.899E-06 (N01384) 830.3E-06     

(N02071)-828.5E-06 (N02428)-804.8E-06 (N02631)-516.3E-06 (N03175)    0.0000     

(N03189) 737.5E-09 (N03193)-1.170E-06 (N03345) 737.5E-09 (N03931)-859.1E-09     

(N04450) 1.048E-06 (N04462) 2.082E-06 (N04549) 1.971E-06 (N06228) 2.061E-06     

(X_U2.6) 259.4E-09 (X_U2.7)-847.2E-06 (X_U2.8)-847.2E-06 (X_U2.9)    0.0000     

(X_U3.6)-260.7E-09 (X_U3.7) 851.1E-06 (X_U3.8) 851.1E-06 (X_U3.9)    0.0000     

(X_U4.6)-225.2E-12 (X_U4.7) 739.3E-09 (X_U4.8) 739.3E-09 (X_U4.9)    0.0000     

(X_U5.6)-634.8E-12 (X_U5.7) 2.085E-06 (X_U5.8) 2.085E-06 (X_U5.9)    0.0000     

(N006951)-828.5E-06                   (N009500)-826.6E-06                       

(N033921)-859.1E-09                   (N045841) 1.971E-06                       

(N047341) 1.971E-06                   (X_U2.10)    -.3759                       

(X_U2.11)  -11.6550                   (X_U2.12)  -11.6550                       

(X_U2.53)    9.8000                   (X_U2.54)   -9.8000                       

(X_U2.90)-414.1E-06                   (X_U2.91)   30.0000                       

(X_U2.92)  -30.0000                   (X_U2.99)    0.0000                       

(X_U3.10)    -.3750                   (X_U3.11)  -11.6550                       

(X_U3.12)  -11.6550                   (X_U3.53)    9.8000                       

(X_U3.54)   -9.8000                   (X_U3.90) 416.0E-06                       

(X_U3.91)   30.0000                   (X_U3.92)  -30.0000                       

(X_U3.99)    0.0000                   (X_U4.10)    -.3750                       

(X_U4.11)  -11.6550                   (X_U4.12)  -11.6550                       

(X_U4.53)    9.8000                   (X_U4.54)   -9.8000                       

(X_U4.90) 37.03E-09                   (X_U4.91)   30.0000                       

(X_U4.92)  -30.0000                   (X_U4.99)    0.0000                       

(X_U5.10)    -.3750                   (X_U5.11)  -11.6550                       

(X_U5.12)  -11.6550                   (X_U5.53)    9.8000                       

(X_U5.54)   -9.8000                   (X_U5.90) 57.64E-09                       

(X_U5.91)   30.0000                   (X_U5.92)  -30.0000                       

(X_U5.99)    0.0000                   (X_U1.X1.5)-804.5E-06                     

(X_U1.X1.6)-804.5E-06                 (X_U1.X1.8)-516.3E-06                     

(X_U1.X1.9)-516.3E-06                 (X_U1.X1.10)-516.3E-06                    

(X_U1.X1.14)-516.3E-06                (X_U1.X1.15)-804.5E-06                    

(X_U1.X1.16)-804.5E-06                (X_U1.X1.17)-934.5E-06                    

(X_U1.X1.18)-516.3E-06                (X_U1.X1.19)-804.5E-06                    

(X_U1.X1.20)-828.5E-06                (X_U1.X1.21)-934.5E-06                    

(X_U1.X1.GNDF)    0.0000              (X_U1.X1.Vimon) 4.549E-09                 

(X_U1.X1.XU3.3)    0.0000             (X_U1.X1.XU3.4)    0.0000                 

(X_U1.X1.XU3.5)    0.0000             (X_U1.X1.XU3.6)    0.0000                 

(X_U1.X1.XU3.7)     .8338             (X_U1.X1.XU3.8)     .8338                 

(X_U1.X1.XU4.3)    0.0000             (X_U1.X1.XU4.4)    0.0000                 

(X_U1.X1.XU4.5)    0.0000             (X_U1.X1.XU4.6)    0.0000                 

(X_U1.X1.XU4.7)     .8338             (X_U1.X1.XU4.8)     .8338                 

(X_U1.X1.XU7.1) 24.00E-06             (X_U1.X1.XU7.2)    0.0000                 

(X_U1.X1.XU8.1)-254.4E-12             (X_U1.X1.XU8.2) 56.84E-15                 

(X_U1.X1.NET126)   11.5980            (X_U1.X1.NET128)  -25.0980                

(X_U1.X1.XU11.VP1)-516.3E-06          (X_U1.X1.XU11.VP2)-516.3E-06              

(X_U1.X1.XU11.VP3)-516.3E-06          (X_U1.X1.XU11.VP4)-516.3E-06              

(X_U1.X1.XU11.VX1)    0.0000          (X_U1.X1.XU11.VX2)    0.0000              

(X_U1.X1.XU11.VX3)    0.0000          (X_U1.X1.XU11.VX4)    0.0000              

(X_U1.X1.XU11.VX5)    0.0000          (X_U1.X1.XU11.VZ1)-516.3E-06              

(X_U1.X1.XU11.VZ2)-516.3E-06          (X_U1.X1.XU11.VZ3)-516.3E-06              

(X_U1.X1.XU11.VZ4)-516.3E-06          (X_U1.X1.XU5.VDD_CLP)   11.0000           

(X_U1.X1.XU5.VSS_CLP)  -11.0000       




    VOLTAGE SOURCE CURRENTS
    NAME         CURRENT

    V_V1        -1.218E-02
    V_V2        -1.218E-02
    V_V3         0.000E+00
    X_U2.VB      2.594E-12
    X_U2.VC      9.802E-12
    X_U2.VE      9.800E-12
    X_U2.VLIM   -4.141E-07
    X_U2.VLP    -3.000E-11
    X_U2.VLN    -3.000E-11
    X_U3.VB     -2.607E-12
    X_U3.VC      9.800E-12
    X_U3.VE      9.802E-12
    X_U3.VLIM    4.160E-07
    X_U3.VLP    -3.000E-11
    X_U3.VLN    -3.000E-11
    X_U4.VB     -2.252E-15
    X_U4.VC      9.801E-12
    X_U4.VE      9.801E-12
    X_U4.VLIM    3.703E-11
    X_U4.VLP    -3.000E-11
    X_U4.VLN    -3.000E-11
    X_U5.VB     -6.348E-15
    X_U5.VC      9.801E-12
    X_U5.VE      9.801E-12
    X_U5.VLIM    5.764E-11
    X_U5.VLP    -3.000E-11
    X_U5.VLN    -3.000E-11
    X_U1.X1.Vos  -1.549E-08
    X_U1.X1.XU6.VSENSE   4.549E-09

    TOTAL POWER DISSIPATION   2.92E-01  WATTS



          JOB CONCLUDED

**** 05/16/24 15:31:11 **** PSpice 23.1.0 (30 January 2024) *** ID# 0 ********

 ** Profile: "SCHEMATIC1-TEST"  [ e:\otros\electrónica\phonopreamp\simulations\phonopreamp3\phonopreamp3-pspicefiles\schematic1\test.


 ****     JOB STATISTICS SUMMARY

 ****     CURRENT STEP                     PARAM GAIN =    1     


******************************************************************************



  Total job time (using Solver 1)   =        2.20
